<?xml version="1.0" encoding="UTF-8"?>

<!-- generated on Tue Jul 30 22:49:27 2019 by Eclipse SUMO netconvert Version 1.2.0
<configuration xmlns:xsi="http://www.w3.org/2001/XMLSchema-instance" xsi:noNamespaceSchemaLocation="http://sumo.dlr.de/xsd/netconvertConfiguration.xsd">

    <input>
        <node-files value="/tmp/tmp9mle9hbi/plain.nod.xml"/>
        <edge-files value="/tmp/tmp9mle9hbi/plain.edg.xml"/>
        <connection-files value="/tmp/tmp9mle9hbi/plain.con.xml"/>
        <tllogic-files value="/tmp/tmp9mle9hbi/plain.tll.xml"/>
        <type-files value="/tmp/tmp9mle9hbi/plain.typ.xml"/>
    </input>

    <output>
        <output-file value="/home/nils/Projekte/AVS/Src/new.net.xml"/>
    </output>

</configuration>
-->

<net version="1.1" junctionCornerDetail="5" limitTurnSpeed="5.50" xmlns:xsi="http://www.w3.org/2001/XMLSchema-instance" xsi:noNamespaceSchemaLocation="http://sumo.dlr.de/xsd/net_file.xsd">

    <location netOffset="-400122.38,-5643551.40" convBoundary="0.00,0.00,1275.18,731.52" origBoundary="7.543501,50.933408,7.613545,50.949114" projParameter="+proj=utm +zone=32 +ellps=WGS84 +datum=WGS84 +units=m +no_defs"/>

    <type id="highway.bridleway" priority="1" numLanes="1" speed="2.78" allow="pedestrian" oneway="1" width="2.00"/>
    <type id="highway.bus_guideway" priority="1" numLanes="1" speed="13.89" allow="bus" oneway="1"/>
    <type id="highway.cycleway" priority="1" numLanes="1" speed="8.33" allow="bicycle" oneway="0" width="1.00"/>
    <type id="highway.footway" priority="1" numLanes="1" speed="2.78" allow="pedestrian" oneway="1" width="2.00"/>
    <type id="highway.ford" priority="1" numLanes="1" speed="2.78" allow="army" oneway="0"/>
    <type id="highway.living_street" priority="3" numLanes="1" speed="2.78" disallow="tram rail_urban rail rail_electric ship" oneway="0"/>
    <type id="highway.motorway" priority="13" numLanes="2" speed="27.78" allow="private emergency authority army vip passenger hov taxi bus coach delivery truck trailer motorcycle evehicle custom1 custom2" oneway="1"/>
    <type id="highway.motorway_link" priority="12" numLanes="1" speed="16.67" allow="private emergency authority army vip passenger hov taxi bus coach delivery truck trailer motorcycle evehicle custom1 custom2" oneway="1"/>
    <type id="highway.path" priority="1" numLanes="1" speed="2.78" allow="bicycle pedestrian" oneway="1" width="2.00"/>
    <type id="highway.pedestrian" priority="1" numLanes="1" speed="2.78" allow="pedestrian" oneway="1" width="2.00"/>
    <type id="highway.primary" priority="9" numLanes="2" speed="13.89" disallow="tram rail_urban rail rail_electric ship" oneway="0"/>
    <type id="highway.primary_link" priority="8" numLanes="1" speed="13.89" disallow="tram rail_urban rail rail_electric ship" oneway="0"/>
    <type id="highway.raceway" priority="14" numLanes="2" speed="83.33" allow="vip" oneway="0"/>
    <type id="highway.residential" priority="4" numLanes="1" speed="13.89" disallow="tram rail_urban rail rail_electric ship" oneway="0"/>
    <type id="highway.secondary" priority="7" numLanes="2" speed="13.89" disallow="tram rail_urban rail rail_electric ship" oneway="0"/>
    <type id="highway.secondary_link" priority="6" numLanes="1" speed="13.89" disallow="tram rail_urban rail rail_electric ship" oneway="0"/>
    <type id="highway.service" priority="2" numLanes="1" speed="5.56" allow="delivery bicycle pedestrian" oneway="0"/>
    <type id="highway.stairs" priority="1" numLanes="1" speed="1.39" allow="pedestrian" oneway="1" width="2.00"/>
    <type id="highway.step" priority="1" numLanes="1" speed="1.39" allow="pedestrian" oneway="1" width="2.00"/>
    <type id="highway.steps" priority="1" numLanes="1" speed="1.39" allow="pedestrian" oneway="1" width="2.00"/>
    <type id="highway.tertiary" priority="6" numLanes="1" speed="13.89" disallow="tram rail_urban rail rail_electric ship" oneway="0"/>
    <type id="highway.tertiary_link" priority="5" numLanes="1" speed="13.89" disallow="tram rail_urban rail rail_electric ship" oneway="0"/>
    <type id="highway.track" priority="1" numLanes="1" speed="5.56" disallow="tram rail_urban rail rail_electric ship" oneway="0"/>
    <type id="highway.trunk" priority="11" numLanes="2" speed="13.89" disallow="tram rail_urban rail rail_electric bicycle pedestrian ship" oneway="0"/>
    <type id="highway.trunk_link" priority="10" numLanes="1" speed="13.89" disallow="tram rail_urban rail rail_electric bicycle pedestrian ship" oneway="0"/>
    <type id="highway.unclassified" priority="5" numLanes="1" speed="13.89" disallow="tram rail_urban rail rail_electric ship" oneway="0"/>
    <type id="highway.unsurfaced" priority="1" numLanes="1" speed="8.33" disallow="tram rail_urban rail rail_electric ship" oneway="0"/>
    <type id="railway.light_rail" priority="15" numLanes="1" speed="27.78" allow="rail_urban" oneway="1"/>
    <type id="railway.preserved" priority="15" numLanes="1" speed="27.78" allow="rail" oneway="1"/>
    <type id="railway.rail" priority="15" numLanes="1" speed="83.33" allow="rail rail_electric" oneway="1"/>
    <type id="railway.subway" priority="15" numLanes="1" speed="27.78" allow="rail_urban" oneway="1"/>
    <type id="railway.tram" priority="15" numLanes="1" speed="13.89" allow="tram" oneway="1"/>

    <edge id=":266796315_0" function="internal">
        <lane id=":266796315_0_0" index="0" disallow="tram rail_urban rail rail_electric ship" speed="3.65" length="4.67" shape="-0.90,1.32 -1.44,-0.01 -1.32,-0.90 -0.54,-1.34 0.90,-1.32"/>
    </edge>
    <edge id=":268001457_0" function="internal">
        <lane id=":268001457_0_0" index="0" disallow="tram rail_urban rail rail_electric ship" speed="3.65" length="4.67" shape="563.75,733.02 562.35,732.69 561.70,732.07 561.80,731.18 562.65,730.02"/>
    </edge>
    <edge id=":293641965_0" function="internal">
        <lane id=":293641965_0_0" index="0" disallow="tram rail_urban rail rail_electric ship" speed="3.65" length="4.67" shape="1274.28,250.86 1275.72,250.84 1276.50,251.28 1276.62,252.16 1276.08,253.50"/>
    </edge>
    <edge id=":996951795_0" function="internal">
        <lane id=":996951795_0_0" index="0" disallow="tram rail_urban rail rail_electric ship" speed="3.65" length="4.67" shape="821.15,230.35 821.51,228.96 822.14,228.32 823.03,228.44 824.17,229.31"/>
    </edge>
    <edge id=":996951860_0" function="internal">
        <lane id=":996951860_0_0" index="0" disallow="tram rail_urban rail rail_electric ship" speed="3.65" length="4.67" shape="684.88,562.50 683.45,562.60 682.64,562.20 682.47,561.33 682.94,559.96"/>
    </edge>
    <edge id=":996951867_0" function="internal">
        <lane id=":996951867_0_0" index="0" disallow="tram rail_urban rail rail_electric ship" speed="3.65" length="4.67" shape="1122.92,127.12 1124.35,126.99 1125.17,127.37 1125.36,128.24 1124.92,129.62"/>
    </edge>
    <edge id=":Node06bf3b82c14c436e93cc5b9deee9e002_0" function="internal">
        <lane id=":Node06bf3b82c14c436e93cc5b9deee9e002_0_0" index="0" disallow="tram rail_urban rail rail_electric ship" speed="7.43" length="8.47" shape="754.19,480.46 752.61,479.37 750.76,478.90 748.64,479.06 746.26,479.83"/>
    </edge>
    <edge id=":Node06bf3b82c14c436e93cc5b9deee9e002_1" function="internal">
        <lane id=":Node06bf3b82c14c436e93cc5b9deee9e002_1_0" index="0" disallow="tram rail_urban rail rail_electric ship" speed="7.30" length="8.30" shape="755.43,470.45 754.74,472.74 754.68,474.79 755.24,476.60 756.42,478.16"/>
    </edge>
    <edge id=":Node06bf3b82c14c436e93cc5b9deee9e002_2" function="internal">
        <lane id=":Node06bf3b82c14c436e93cc5b9deee9e002_2_0" index="0" disallow="tram rail_urban rail rail_electric ship" speed="12.28" length="13.49" shape="755.43,470.45 753.83,473.58 751.84,476.13 749.35,478.18 746.26,479.83"/>
    </edge>
    <edge id=":Node122bc02d676a438e9501e5fb38305d22_0" function="internal">
        <lane id=":Node122bc02d676a438e9501e5fb38305d22_0_0" index="0" disallow="tram rail_urban rail rail_electric ship" speed="7.42" length="8.44" shape="718.00,441.14 719.58,442.22 721.43,442.67 723.54,442.50 725.92,441.71"/>
    </edge>
    <edge id=":Node122bc02d676a438e9501e5fb38305d22_1" function="internal">
        <lane id=":Node122bc02d676a438e9501e5fb38305d22_1_0" index="0" disallow="tram rail_urban rail rail_electric ship" speed="7.16" length="8.49" shape="716.79,451.27 717.58,449.03 717.68,446.98 717.08,445.12 715.79,443.45"/>
    </edge>
    <edge id=":Node122bc02d676a438e9501e5fb38305d22_2" function="internal">
        <lane id=":Node122bc02d676a438e9501e5fb38305d22_2_0" index="0" disallow="tram rail_urban rail rail_electric ship" speed="13.13" length="13.52" shape="716.79,451.27 718.50,448.16 720.46,445.56 722.87,443.42 725.92,441.71"/>
    </edge>
    <edge id=":Node137942f40ce548c5b3f2471fcf963d0f_0" function="internal">
        <lane id=":Node137942f40ce548c5b3f2471fcf963d0f_0_0" index="0" disallow="tram rail_urban rail rail_electric ship" speed="7.16" length="8.49" shape="738.10,482.20 735.78,482.69 733.98,483.68 732.70,485.15 731.95,487.12"/>
    </edge>
    <edge id=":Node137942f40ce548c5b3f2471fcf963d0f_1" function="internal">
        <lane id=":Node137942f40ce548c5b3f2471fcf963d0f_1_0" index="0" disallow="tram rail_urban rail rail_electric ship" speed="13.13" length="13.52" shape="738.10,482.20 734.56,482.36 731.31,482.04 728.23,481.09 725.19,479.38"/>
    </edge>
    <edge id=":Node137942f40ce548c5b3f2471fcf963d0f_2" function="internal">
        <lane id=":Node137942f40ce548c5b3f2471fcf963d0f_2_0" index="0" disallow="tram rail_urban rail rail_electric ship" speed="7.42" length="8.44" shape="728.82,486.43 728.92,484.53 728.35,482.71 727.10,481.00 725.19,479.38"/>
    </edge>
    <edge id=":Node17756344b4d44e65bd85d01a23e64600_0" function="internal">
        <lane id=":Node17756344b4d44e65bd85d01a23e64600_0_0" index="0" disallow="tram rail_urban rail rail_electric ship" speed="8.44" length="10.13" shape="826.11,415.45 823.79,414.89 821.46,415.06 819.12,415.98 816.75,417.64"/>
    </edge>
    <edge id=":Node17756344b4d44e65bd85d01a23e64600_1" function="internal">
        <lane id=":Node17756344b4d44e65bd85d01a23e64600_1_0" index="0" disallow="tram rail_urban rail rail_electric ship" speed="13.89" length="13.99" shape="826.11,415.45 822.83,413.94 819.93,412.13 817.39,409.88 815.21,407.05"/>
    </edge>
    <edge id=":Node17756344b4d44e65bd85d01a23e64600_2" function="internal">
        <lane id=":Node17756344b4d44e65bd85d01a23e64600_2_0" index="0" disallow="tram rail_urban rail rail_electric ship" speed="6.86" length="9.05" shape="814.68,415.22 816.10,413.52 816.66,411.59 816.37,409.44 815.21,407.05"/>
    </edge>
    <edge id=":Node2295e5e38ad54248aad6d754171d6995_0" function="internal">
        <lane id=":Node2295e5e38ad54248aad6d754171d6995_0_0" index="0" disallow="tram rail_urban rail rail_electric ship" speed="13.89" length="11.87" shape="921.95,420.84 921.32,417.60 921.02,414.92 921.26,412.28 922.22,409.19"/>
    </edge>
    <edge id=":Node2295e5e38ad54248aad6d754171d6995_1" function="internal">
        <lane id=":Node2295e5e38ad54248aad6d754171d6995_1_0" index="0" disallow="tram rail_urban rail rail_electric ship" speed="7.61" length="8.93" shape="915.62,414.36 917.74,414.01 919.55,413.04 921.05,411.43 922.22,409.19"/>
    </edge>
    <edge id=":Node240798b03498439b92eaa37ede599e90_0" function="internal">
        <lane id=":Node240798b03498439b92eaa37ede599e90_0_0" index="0" disallow="tram rail_urban rail rail_electric ship" speed="7.44" length="8.49" shape="894.39,321.86 893.49,323.57 893.24,325.47 893.64,327.56 894.69,329.84"/>
    </edge>
    <edge id=":Node240798b03498439b92eaa37ede599e90_1" function="internal">
        <lane id=":Node240798b03498439b92eaa37ede599e90_1_0" index="0" disallow="tram rail_urban rail rail_electric ship" speed="6.91" length="8.49" shape="884.31,321.85 886.48,322.49 888.46,322.38 890.25,321.53 891.85,319.92"/>
    </edge>
    <edge id=":Node240798b03498439b92eaa37ede599e90_2" function="internal">
        <lane id=":Node240798b03498439b92eaa37ede599e90_2_0" index="0" disallow="tram rail_urban rail rail_electric ship" speed="13.89" length="13.35" shape="884.31,321.85 887.50,323.35 890.27,324.99 892.65,327.06 894.69,329.84"/>
    </edge>
    <edge id=":Node3346a37126f4422898b02de45ae7dc6a_0" function="internal">
        <lane id=":Node3346a37126f4422898b02de45ae7dc6a_0_0" index="0" disallow="tram rail_urban rail rail_electric ship" speed="6.63" length="7.76" shape="854.66,395.69 854.79,397.72 855.51,399.37 856.82,400.64 858.73,401.53"/>
    </edge>
    <edge id=":Node3346a37126f4422898b02de45ae7dc6a_1" function="internal">
        <lane id=":Node3346a37126f4422898b02de45ae7dc6a_1_0" index="0" disallow="tram rail_urban rail rail_electric ship" speed="13.89" length="9.05" shape="854.66,395.69 854.42,398.36 854.11,400.18 853.54,401.94 852.55,404.43"/>
    </edge>
    <edge id=":Node8afc0e4a3de8485a84a8bae231bf304a_0" function="internal">
        <lane id=":Node8afc0e4a3de8485a84a8bae231bf304a_0_0" index="0" disallow="tram rail_urban rail rail_electric ship" speed="7.42" length="8.44" shape="965.96,402.17 964.56,403.47 963.71,405.17 963.42,407.27 963.67,409.77"/>
    </edge>
    <edge id=":Node8afc0e4a3de8485a84a8bae231bf304a_1" function="internal">
        <lane id=":Node8afc0e4a3de8485a84a8bae231bf304a_1_0" index="0" disallow="tram rail_urban rail rail_electric ship" speed="7.11" length="8.54" shape="956.32,398.75 958.31,400.04 960.28,400.59 962.24,400.41 964.19,399.50"/>
    </edge>
    <edge id=":Node8afc0e4a3de8485a84a8bae231bf304a_2" function="internal">
        <lane id=":Node8afc0e4a3de8485a84a8bae231bf304a_2_0" index="0" disallow="tram rail_urban rail rail_electric ship" speed="13.43" length="13.54" shape="956.32,398.75 958.95,401.13 961.08,403.61 962.66,406.42 963.67,409.77"/>
    </edge>
    <edge id=":Node8c7d3e29c3c348f790b1c06bf1b09899_0" function="internal">
        <lane id=":Node8c7d3e29c3c348f790b1c06bf1b09899_0_0" index="0" disallow="tram rail_urban rail rail_electric ship" speed="7.42" length="8.44" shape="859.77,321.70 861.29,322.85 863.12,323.39 865.23,323.32 867.65,322.65"/>
    </edge>
    <edge id=":Node8c7d3e29c3c348f790b1c06bf1b09899_1" function="internal">
        <lane id=":Node8c7d3e29c3c348f790b1c06bf1b09899_1_0" index="0" disallow="tram rail_urban rail rail_electric ship" speed="7.20" length="8.43" shape="858.09,331.72 858.94,329.50 859.12,327.46 858.62,325.59 857.44,323.90"/>
    </edge>
    <edge id=":Node8c7d3e29c3c348f790b1c06bf1b09899_2" function="internal">
        <lane id=":Node8c7d3e29c3c348f790b1c06bf1b09899_2_0" index="0" disallow="tram rail_urban rail rail_electric ship" speed="12.82" length="13.51" shape="858.09,331.72 859.89,328.68 861.98,326.19 864.51,324.19 867.65,322.65"/>
    </edge>
    <edge id=":Node8ec8db3c99294cc7ba46928b452e0f6f_0" function="internal">
        <lane id=":Node8ec8db3c99294cc7ba46928b452e0f6f_0_0" index="0" disallow="tram rail_urban rail rail_electric ship" speed="19.44" length="12.69" shape="796.82,511.73 794.13,513.81 791.93,515.79 790.01,518.03 788.19,520.87"/>
    </edge>
    <edge id=":Node8ec8db3c99294cc7ba46928b452e0f6f_1" function="internal">
        <lane id=":Node8ec8db3c99294cc7ba46928b452e0f6f_1_0" index="0" disallow="tram rail_urban rail rail_electric ship" speed="7.74" length="5.49" shape="796.82,511.73 793.15,513.72 791.84,513.80"/>
    </edge>
    <edge id=":Node8ec8db3c99294cc7ba46928b452e0f6f_2" function="internal">
        <lane id=":Node8ec8db3c99294cc7ba46928b452e0f6f_2_0" index="0" disallow="tram rail_urban rail rail_electric ship" speed="3.65" length="2.34" shape="796.82,511.73 795.38,511.80 794.58,511.40"/>
    </edge>
    <edge id=":Node8ec8db3c99294cc7ba46928b452e0f6f_9" function="internal">
        <lane id=":Node8ec8db3c99294cc7ba46928b452e0f6f_9_0" index="0" disallow="tram rail_urban rail rail_electric ship" speed="7.74" length="9.37" shape="791.84,513.80 789.90,513.91 787.06,512.31 784.64,508.91"/>
    </edge>
    <edge id=":Node8ec8db3c99294cc7ba46928b452e0f6f_10" function="internal">
        <lane id=":Node8ec8db3c99294cc7ba46928b452e0f6f_10_0" index="0" disallow="tram rail_urban rail rail_electric ship" speed="3.65" length="2.34" shape="794.58,511.40 794.42,510.52 794.90,509.16"/>
    </edge>
    <edge id=":Node8ec8db3c99294cc7ba46928b452e0f6f_3" function="internal">
        <lane id=":Node8ec8db3c99294cc7ba46928b452e0f6f_3_0" index="0" disallow="tram rail_urban rail rail_electric ship" speed="6.18" length="9.05" shape="787.49,507.45 788.96,509.52 790.69,510.49 792.67,510.38 794.90,509.16"/>
    </edge>
    <edge id=":Node8ec8db3c99294cc7ba46928b452e0f6f_4" function="internal">
        <lane id=":Node8ec8db3c99294cc7ba46928b452e0f6f_4_0" index="0" disallow="tram rail_urban rail rail_electric ship" speed="10.48" length="14.01" shape="787.49,507.45 789.02,511.17 789.64,514.65 789.36,517.88 788.19,520.87"/>
    </edge>
    <edge id=":Node8ec8db3c99294cc7ba46928b452e0f6f_5" function="internal">
        <lane id=":Node8ec8db3c99294cc7ba46928b452e0f6f_5_0" index="0" disallow="tram rail_urban rail rail_electric ship" speed="3.65" length="4.67" shape="787.49,507.45 787.33,508.88 786.80,509.60 785.90,509.61 784.64,508.91"/>
    </edge>
    <edge id=":Node8ec8db3c99294cc7ba46928b452e0f6f_6" function="internal">
        <lane id=":Node8ec8db3c99294cc7ba46928b452e0f6f_6_0" index="0" disallow="tram rail_urban rail rail_electric ship" speed="9.27" length="10.84" shape="785.40,519.29 786.26,517.05 786.42,514.58 785.88,511.87 784.64,508.91"/>
    </edge>
    <edge id=":Node8ec8db3c99294cc7ba46928b452e0f6f_7" function="internal">
        <lane id=":Node8ec8db3c99294cc7ba46928b452e0f6f_7_0" index="0" disallow="tram rail_urban rail rail_electric ship" speed="19.44" length="13.99" shape="785.40,519.29 787.37,516.29 789.58,513.72 792.08,511.40 794.90,509.16"/>
    </edge>
    <edge id=":Node8ec8db3c99294cc7ba46928b452e0f6f_8" function="internal">
        <lane id=":Node8ec8db3c99294cc7ba46928b452e0f6f_8_0" index="0" disallow="tram rail_urban rail rail_electric ship" speed="3.65" length="2.34" shape="785.40,519.29 786.69,518.64 787.59,518.69"/>
    </edge>
    <edge id=":Node8ec8db3c99294cc7ba46928b452e0f6f_11" function="internal">
        <lane id=":Node8ec8db3c99294cc7ba46928b452e0f6f_11_0" index="0" disallow="tram rail_urban rail rail_electric ship" speed="3.65" length="2.34" shape="787.59,518.69 788.08,519.43 788.19,520.87"/>
    </edge>
    <edge id=":Nodeb2a27d4a77674d22a93bfb54390f18e0_0" function="internal">
        <lane id=":Nodeb2a27d4a77674d22a93bfb54390f18e0_0_0" index="0" disallow="tram rail_urban rail rail_electric ship" speed="6.69" length="8.56" shape="758.85,446.74 757.40,447.72 756.56,449.30 756.34,451.49 756.74,454.28"/>
    </edge>
    <edge id=":Nodeb2a27d4a77674d22a93bfb54390f18e0_1" function="internal">
        <lane id=":Nodeb2a27d4a77674d22a93bfb54390f18e0_1_0" index="0" disallow="tram rail_urban rail rail_electric ship" speed="7.89" length="8.34" shape="749.01,443.46 750.64,444.42 752.51,444.84 754.61,444.71 756.95,444.04"/>
    </edge>
    <edge id=":Nodeb2a27d4a77674d22a93bfb54390f18e0_2" function="internal">
        <lane id=":Nodeb2a27d4a77674d22a93bfb54390f18e0_2_0" index="0" disallow="tram rail_urban rail rail_electric ship" speed="13.87" length="13.56" shape="749.01,443.46 751.69,445.80 753.91,448.23 755.61,450.98 756.74,454.28"/>
    </edge>
    <edge id=":Noded9f7dd47c6d3403ab7d4b8701a3be807_0" function="internal">
        <lane id=":Noded9f7dd47c6d3403ab7d4b8701a3be807_0_0" index="0" disallow="tram rail_urban rail rail_electric ship" speed="7.42" length="8.44" shape="851.05,375.27 850.11,376.93 849.82,378.81 850.18,380.90 851.18,383.20"/>
    </edge>
    <edge id=":Noded9f7dd47c6d3403ab7d4b8701a3be807_1" function="internal">
        <lane id=":Noded9f7dd47c6d3403ab7d4b8701a3be807_1_0" index="0" disallow="tram rail_urban rail rail_electric ship" speed="7.13" length="8.53" shape="840.83,374.94 843.12,375.56 845.17,375.48 846.98,374.72 848.55,373.26"/>
    </edge>
    <edge id=":Noded9f7dd47c6d3403ab7d4b8701a3be807_2" function="internal">
        <lane id=":Noded9f7dd47c6d3403ab7d4b8701a3be807_2_0" index="0" disallow="tram rail_urban rail rail_electric ship" speed="13.35" length="13.54" shape="840.83,374.94 844.07,376.39 846.84,378.12 849.20,380.32 851.18,383.20"/>
    </edge>
    <edge id=":Nodedf029caac7ac4792bee33eb4ff6138e8_0" function="internal">
        <lane id=":Nodedf029caac7ac4792bee33eb4ff6138e8_0_0" index="0" disallow="tram rail_urban rail rail_electric ship" speed="7.18" length="8.46" shape="868.43,361.94 866.14,361.28 864.09,361.29 862.27,361.98 860.69,363.34"/>
    </edge>
    <edge id=":Nodedf029caac7ac4792bee33eb4ff6138e8_1" function="internal">
        <lane id=":Nodedf029caac7ac4792bee33eb4ff6138e8_1_0" index="0" disallow="tram rail_urban rail rail_electric ship" speed="12.99" length="13.52" shape="868.43,361.94 865.23,360.41 862.54,358.58 860.29,356.27 858.44,353.30"/>
    </edge>
    <edge id=":Nodedf029caac7ac4792bee33eb4ff6138e8_2" function="internal">
        <lane id=":Nodedf029caac7ac4792bee33eb4ff6138e8_2_0" index="0" disallow="tram rail_urban rail rail_electric ship" speed="7.42" length="8.44" shape="858.27,361.24 859.26,359.61 859.62,357.74 859.35,355.64 858.44,353.30"/>
    </edge>
    <edge id=":Nodefe82e052b36e4e2d9a1a3c779ea3dfec_0" function="internal">
        <lane id=":Nodefe82e052b36e4e2d9a1a3c779ea3dfec_0_0" index="0" disallow="tram rail_urban rail rail_electric ship" speed="7.08" length="8.59" shape="929.47,432.46 927.50,431.15 925.52,430.59 923.55,430.77 921.59,431.71"/>
    </edge>
    <edge id=":Nodefe82e052b36e4e2d9a1a3c779ea3dfec_1" function="internal">
        <lane id=":Nodefe82e052b36e4e2d9a1a3c779ea3dfec_1_0" index="0" disallow="tram rail_urban rail rail_electric ship" speed="13.72" length="13.56" shape="929.47,432.46 926.85,430.06 924.71,427.57 923.10,424.78 922.07,421.44"/>
    </edge>
    <edge id=":Nodefe82e052b36e4e2d9a1a3c779ea3dfec_2" function="internal">
        <lane id=":Nodefe82e052b36e4e2d9a1a3c779ea3dfec_2_0" index="0" disallow="tram rail_urban rail rail_electric ship" speed="7.42" length="8.44" shape="919.81,429.05 921.20,427.74 922.04,426.03 922.33,423.93 922.07,421.44"/>
    </edge>

    <edge id="-24814407#0" from="Node122bc02d676a438e9501e5fb38305d22" to="266796315" priority="7" type="highway.secondary" shape="721.70,446.90 692.10,418.50 666.26,392.86 641.23,363.43 573.51,267.81 564.16,258.78 555.03,252.18 550.19,247.90 536.71,239.05 521.68,233.07 496.90,225.47 464.68,218.59 426.21,210.79 387.59,197.17 346.82,175.06 303.33,138.31 276.01,113.13 273.68,111.19 254.88,96.61 237.46,87.27 209.82,77.81 185.51,67.75 144.66,56.06 85.24,41.56 46.21,26.94 24.76,16.81 0.00,0.00">
        <lane id="-24814407#0_0" index="0" disallow="tram rail_urban rail rail_electric ship" speed="27.78" length="869.96" shape="715.79,443.45 690.98,419.65 665.09,393.95 639.97,364.41 572.29,268.86 563.13,260.01 554.03,253.43 549.22,249.17 535.97,240.48 521.15,234.58 496.50,227.02 464.35,220.16 425.78,212.34 386.94,198.64 345.91,176.39 302.27,139.51 274.96,114.33 272.68,112.44 254.01,97.96 236.82,88.74 209.25,79.31 184.98,69.26 144.25,57.61 84.77,43.09 45.59,28.42 23.96,18.20 -0.90,1.32"/>
    </edge>
    <edge id="-24814407#2" from="Node8ec8db3c99294cc7ba46928b452e0f6f" to="Node06bf3b82c14c436e93cc5b9deee9e002" priority="7" type="highway.secondary" shape="789.63,515.10 784.69,505.51 775.49,498.85 750.50,474.66">
        <lane id="-24814407#2_0" index="0" disallow="tram rail_urban rail rail_electric ship" speed="27.78" length="41.92" shape="784.64,508.91 783.44,506.58 774.46,500.08 754.19,480.46"/>
    </edge>
    <edge id="-26697423#0" from="Nodefe82e052b36e4e2d9a1a3c779ea3dfec" to="Node8ec8db3c99294cc7ba46928b452e0f6f" priority="9" type="highway.primary" shape="926.23,426.68 913.74,435.03 894.70,447.27 832.90,488.22 812.37,500.40 798.27,508.65 789.63,515.10">
        <lane id="-26697423#0_0" index="0" disallow="tram rail_urban rail rail_electric ship" speed="19.44" length="148.27" shape="921.59,431.71 914.62,436.37 895.57,448.61 833.75,489.58 813.18,501.78 799.15,509.99 796.82,511.73"/>
    </edge>
    <edge id="-26697423#1" from="293641965" to="Node8afc0e4a3de8485a84a8bae231bf304a" priority="9" type="highway.primary" shape="1275.18,252.18 1230.56,282.62 1199.16,298.86 1173.37,308.41 1091.98,329.63 1051.20,346.44 1013.15,368.93 959.53,404.51">
        <lane id="-26697423#1_0" index="0" disallow="tram rail_urban rail rail_electric ship" speed="19.44" length="347.01" shape="1276.08,253.50 1231.38,284.00 1199.81,300.33 1173.85,309.94 1092.49,331.15 1051.92,347.88 1014.00,370.29 965.96,402.17"/>
    </edge>
    <edge id="-399638313#0" from="Node240798b03498439b92eaa37ede599e90" to="996951867" priority="4" type="highway.residential" shape="889.05,326.24 909.16,299.82 933.08,270.45 957.08,241.59 978.75,218.41 989.28,204.25 1017.63,196.69 1043.49,186.44 1085.69,159.11 1123.92,128.37">
        <lane id="-399638313#0_0" index="0" disallow="tram rail_urban rail rail_electric ship" speed="8.33" length="308.19" shape="891.85,319.92 907.90,298.83 931.84,269.43 955.88,240.53 977.52,217.38 988.33,202.85 1017.13,195.17 1042.75,185.01 1084.75,157.81 1122.92,127.12"/>
    </edge>
    <edge id="-399638313#1" from="Noded9f7dd47c6d3403ab7d4b8701a3be807" to="Nodedf029caac7ac4792bee33eb4ff6138e8" priority="4" type="highway.residential" shape="845.63,379.45 858.60,363.30 863.84,357.26">
        <lane id="-399638313#1_0" index="0" disallow="tram rail_urban rail rail_electric ship" speed="8.33" length="15.46" shape="848.55,373.26 857.37,362.27 858.27,361.24"/>
    </edge>
    <edge id="-399638313#2" from="Nodeb2a27d4a77674d22a93bfb54390f18e0" to="Node17756344b4d44e65bd85d01a23e64600" priority="4" type="highway.residential" shape="752.43,449.16 757.53,445.53 785.55,434.73 807.43,423.52 821.54,411.46">
        <lane id="-399638313#2_0" index="0" disallow="tram rail_urban rail rail_electric ship" speed="8.33" length="64.98" shape="756.95,444.04 784.90,433.27 806.53,422.18 814.68,415.22"/>
    </edge>
    <edge id="-55262538" from="Node8ec8db3c99294cc7ba46928b452e0f6f" to="268001457" priority="9" type="highway.primary" shape="789.63,515.10 784.30,524.47 775.69,538.45 744.35,583.16 700.77,638.75 655.56,684.51 615.94,712.07 563.20,731.52">
        <lane id="-55262538_0" index="0" disallow="tram rail_urban rail rail_electric ship" speed="19.44" length="316.63" shape="788.19,520.87 785.68,525.28 777.03,539.33 745.64,584.11 701.97,639.81 656.59,685.74 616.69,713.50 563.75,733.02"/>
    </edge>
    <edge id="-85892256" from="996951860" to="Node137942f40ce548c5b3f2471fcf963d0f" priority="4" type="highway.residential" shape="683.91,561.23 692.72,554.46 703.92,548.92 723.84,534.75 731.89,520.85 732.01,504.74 729.33,491.56 731.82,480.28">
        <lane id="-85892256_0" index="0" disallow="tram rail_urban rail rail_electric ship" speed="13.89" length="97.43" shape="682.94,559.96 691.87,553.10 703.10,547.54 722.63,533.65 730.29,520.41 730.41,504.90 727.69,491.55 728.82,486.43"/>
    </edge>
    <edge id="-85892270" from="996951795" to="Node8c7d3e29c3c348f790b1c06bf1b09899" priority="4" type="highway.residential" shape="822.66,229.83 841.45,284.46 842.98,289.23 851.30,315.09 863.18,327.63">
        <lane id="-85892270_0" index="0" disallow="tram rail_urban rail rail_electric ship" speed="8.33" length="99.87" shape="824.17,229.31 842.97,283.96 844.50,288.74 852.71,314.25 859.77,321.70"/>
    </edge>
    <edge id="24814407#0" from="266796315" to="Node122bc02d676a438e9501e5fb38305d22" priority="7" type="highway.secondary" shape="0.00,0.00 24.76,16.81 46.21,26.94 85.24,41.56 144.66,56.06 185.51,67.75 209.82,77.81 237.46,87.27 254.88,96.61 273.68,111.19 276.01,113.13 303.33,138.31 346.82,175.06 387.59,197.17 426.21,210.79 464.68,218.59 496.90,225.47 521.68,233.07 536.71,239.05 550.19,247.90 555.03,252.18 564.16,258.78 573.51,267.81 641.23,363.43 666.26,392.86 692.10,418.50 721.70,446.90">
        <lane id="24814407#0_0" index="0" disallow="tram rail_urban rail rail_electric ship" speed="27.78" length="870.51" shape="0.90,-1.32 25.56,15.42 46.83,25.46 85.71,40.03 145.07,54.51 186.04,66.24 210.39,76.31 238.10,85.80 255.75,95.26 274.68,109.94 277.06,111.93 304.39,137.11 347.73,173.73 388.24,195.70 426.64,209.24 465.01,217.02 497.30,223.92 522.21,231.56 537.45,237.62 551.16,246.63 556.03,250.93 565.19,257.55 574.73,266.76 642.49,362.45 667.43,391.77 693.22,417.35 718.00,441.14"/>
    </edge>
    <edge id="24814407#2" from="Node06bf3b82c14c436e93cc5b9deee9e002" to="Node8ec8db3c99294cc7ba46928b452e0f6f" priority="7" type="highway.secondary" shape="750.50,474.66 775.49,498.85 784.69,505.51 789.63,515.10">
        <lane id="24814407#2_0" index="0" disallow="tram rail_urban rail rail_electric ship" speed="27.78" length="42.99" shape="756.42,478.16 776.52,497.62 785.94,504.44 787.49,507.45"/>
    </edge>
    <edge id="26697423#0" from="Node8ec8db3c99294cc7ba46928b452e0f6f" to="Nodefe82e052b36e4e2d9a1a3c779ea3dfec" priority="9" type="highway.primary" shape="789.63,515.10 798.27,508.65 812.37,500.40 832.90,488.22 894.70,447.27 913.74,435.03 926.23,426.68">
        <lane id="26697423#0_0" index="0" disallow="tram rail_urban rail rail_electric ship" speed="19.44" length="148.43" shape="794.90,509.16 797.39,507.31 811.56,499.02 832.05,486.86 893.83,445.93 912.86,433.69 919.81,429.05"/>
    </edge>
    <edge id="26697423#1" from="Node8afc0e4a3de8485a84a8bae231bf304a" to="293641965" priority="9" type="highway.primary" shape="959.53,404.51 1013.15,368.93 1051.20,346.44 1091.98,329.63 1173.37,308.41 1199.16,298.86 1230.56,282.62 1275.18,252.18">
        <lane id="26697423#1_0" index="0" disallow="tram rail_urban rail rail_electric ship" speed="19.44" length="346.97" shape="964.19,399.50 1012.30,367.57 1050.48,345.00 1091.47,328.11 1172.89,306.88 1198.51,297.39 1229.74,281.24 1274.28,250.86"/>
    </edge>