<configuration>
    <input>
        <net-file value="minimal.net.xml"/>
        <route-files value="trips.trips.xml"/>
    </input>
    <report>
        <verbose value="true"/>
        <duration-log.statistics value="true"/>
        <no-step-log value="true"/>
    </report>
    <time>
        <begin value="0"/>
        <end value="10000"/>
    </time>
</configuration>
