<?xml version="1.0" encoding="UTF-8"?>

<!-- generated on Thu Aug  8 09:09:14 2019 by Eclipse SUMO netconvert Version 1.1.0
<configuration xmlns:xsi="http://www.w3.org/2001/XMLSchema-instance" xsi:noNamespaceSchemaLocation="http://sumo.dlr.de/xsd/netconvertConfiguration.xsd">

    <input>
        <node-files value="/tmp/tmplwyv1vx8/PLAIN_PRFX.nod.xml"/>
        <edge-files value="/tmp/tmplwyv1vx8/PLAIN_PRFX.edg.xml"/>
        <connection-files value="/tmp/tmplwyv1vx8/PLAIN_PRFX.con.xml"/>
        <tllogic-files value="/tmp/tmplwyv1vx8/PLAIN_PRFX.tll.xml"/>
        <type-files value="/tmp/tmplwyv1vx8/PLAIN_PRFX.typ.xml"/>
    </input>

    <output>
        <output-file value="/home/dennis/AVS_2019/Experimente/Karte_verkleinern/s1.net.xml"/>
    </output>

</configuration>
-->

<net version="1.1" junctionCornerDetail="5" limitTurnSpeed="5.50" xmlns:xsi="http://www.w3.org/2001/XMLSchema-instance" xsi:noNamespaceSchemaLocation="http://sumo.dlr.de/xsd/net_file.xsd">

    <location netOffset="-348596.45,-5631209.85" convBoundary="0.00,0.00,6447.32,4666.29" origBoundary="6.166558,50.735925,7.295276,51.840721" projParameter="+proj=utm +zone=32 +ellps=WGS84 +datum=WGS84 +units=m +no_defs"/>

    <type id="highway.bridleway" priority="1" numLanes="1" speed="2.78" allow="pedestrian" oneway="1" width="2.00"/>
    <type id="highway.bus_guideway" priority="1" numLanes="1" speed="13.89" allow="bus" oneway="1"/>
    <type id="highway.cycleway" priority="1" numLanes="1" speed="8.33" allow="bicycle" oneway="0" width="1.00"/>
    <type id="highway.footway" priority="1" numLanes="1" speed="2.78" allow="pedestrian" oneway="1" width="2.00"/>
    <type id="highway.ford" priority="1" numLanes="1" speed="2.78" allow="army" oneway="0"/>
    <type id="highway.living_street" priority="3" numLanes="1" speed="2.78" disallow="tram rail_urban rail rail_electric ship" oneway="0"/>
    <type id="highway.motorway" priority="13" numLanes="2" speed="27.78" allow="private emergency authority army vip passenger hov taxi bus coach delivery truck trailer motorcycle evehicle custom1 custom2" oneway="1"/>
    <type id="highway.motorway_link" priority="12" numLanes="1" speed="16.67" allow="private emergency authority army vip passenger hov taxi bus coach delivery truck trailer motorcycle evehicle custom1 custom2" oneway="1"/>
    <type id="highway.path" priority="1" numLanes="1" speed="2.78" allow="bicycle pedestrian" oneway="1" width="2.00"/>
    <type id="highway.pedestrian" priority="1" numLanes="1" speed="2.78" allow="pedestrian" oneway="1" width="2.00"/>
    <type id="highway.primary" priority="9" numLanes="2" speed="13.89" disallow="tram rail_urban rail rail_electric ship" oneway="0"/>
    <type id="highway.primary_link" priority="8" numLanes="1" speed="13.89" disallow="tram rail_urban rail rail_electric ship" oneway="0"/>
    <type id="highway.primary|railway.tram" priority="15" numLanes="2" speed="13.89" disallow="rail_urban rail rail_electric ship" oneway="0"/>
    <type id="highway.raceway" priority="14" numLanes="2" speed="83.33" allow="vip" oneway="0"/>
    <type id="highway.residential" priority="4" numLanes="1" speed="13.89" disallow="tram rail_urban rail rail_electric ship" oneway="0"/>
    <type id="highway.secondary" priority="7" numLanes="2" speed="13.89" disallow="tram rail_urban rail rail_electric ship" oneway="0"/>
    <type id="highway.secondary_link" priority="6" numLanes="1" speed="13.89" disallow="tram rail_urban rail rail_electric ship" oneway="0"/>
    <type id="highway.service" priority="2" numLanes="1" speed="5.56" allow="delivery bicycle pedestrian" oneway="0"/>
    <type id="highway.services" priority="1" numLanes="1" speed="8.33" disallow="tram rail_urban rail rail_electric ship" oneway="0"/>
    <type id="highway.service|railway.rail" priority="15" numLanes="1" speed="83.33" allow="delivery rail rail_electric bicycle pedestrian" oneway="0"/>
    <type id="highway.stairs" priority="1" numLanes="1" speed="1.39" allow="pedestrian" oneway="1" width="2.00"/>
    <type id="highway.step" priority="1" numLanes="1" speed="1.39" allow="pedestrian" oneway="1" width="2.00"/>
    <type id="highway.steps" priority="1" numLanes="1" speed="1.39" allow="pedestrian" oneway="1" width="2.00"/>
    <type id="highway.tertiary" priority="6" numLanes="1" speed="13.89" disallow="tram rail_urban rail rail_electric ship" oneway="0"/>
    <type id="highway.tertiary_link" priority="5" numLanes="1" speed="13.89" disallow="tram rail_urban rail rail_electric ship" oneway="0"/>
    <type id="highway.tertiary|railway.tram" priority="15" numLanes="1" speed="13.89" disallow="rail_urban rail rail_electric ship" oneway="0"/>
    <type id="highway.track" priority="1" numLanes="1" speed="5.56" disallow="tram rail_urban rail rail_electric ship" oneway="0"/>
    <type id="highway.trunk" priority="11" numLanes="2" speed="13.89" disallow="tram rail_urban rail rail_electric bicycle pedestrian ship" oneway="0"/>
    <type id="highway.trunk_link" priority="10" numLanes="1" speed="13.89" disallow="tram rail_urban rail rail_electric bicycle pedestrian ship" oneway="0"/>
    <type id="highway.unclassified" priority="5" numLanes="1" speed="13.89" disallow="tram rail_urban rail rail_electric ship" oneway="0"/>
    <type id="highway.unsurfaced" priority="1" numLanes="1" speed="8.33" disallow="tram rail_urban rail rail_electric ship" oneway="0"/>
    <type id="railway.light_rail" priority="15" numLanes="1" speed="27.78" allow="rail_urban" oneway="1"/>
    <type id="railway.preserved" priority="15" numLanes="1" speed="27.78" allow="rail" oneway="1"/>
    <type id="railway.rail" priority="15" numLanes="1" speed="83.33" allow="rail rail_electric" oneway="1"/>
    <type id="railway.subway" priority="15" numLanes="1" speed="27.78" allow="rail_urban" oneway="1"/>
    <type id="railway.tram" priority="15" numLanes="1" speed="13.89" allow="tram" oneway="1"/>

    <edge id=":1211226054_0" function="internal">
        <lane id=":1211226054_0_0" index="0" disallow="tram rail_urban rail rail_electric ship" speed="6.39" length="9.04" shape="3462.73,1671.11 3460.23,1671.13 3458.39,1671.96 3457.19,1673.59 3456.63,1676.02"/>
    </edge>
    <edge id=":1211226054_1" function="internal">
        <lane id=":1211226054_1_0" index="0" disallow="tram rail_urban rail rail_electric ship" speed="8.24" length="12.25" shape="3462.73,1671.11 3458.95,1670.26 3456.16,1668.87 3454.36,1666.93 3453.55,1664.44"/>
    </edge>
    <edge id=":1211226054_2" function="internal">
        <lane id=":1211226054_2_0" index="0" disallow="tram rail_urban rail rail_electric ship" speed="13.89" length="11.35" shape="3453.44,1675.76 3453.71,1672.59 3453.86,1670.10 3453.83,1667.60 3453.55,1664.44"/>
    </edge>
    <edge id=":1211226054_3" function="internal">
        <lane id=":1211226054_3_0" index="0" disallow="tram rail_urban rail rail_electric ship" speed="3.65" length="4.67" shape="3453.44,1675.76 3454.34,1674.63 3455.17,1674.30 3455.93,1674.76 3456.63,1676.02"/>
    </edge>
    <edge id=":1295503288_0" function="internal">
        <lane id=":1295503288_0_0" index="0" disallow="tram rail_urban rail rail_electric ship" speed="7.51" length="8.96" shape="2896.42,801.56 2894.04,802.36 2892.24,803.60 2891.03,805.28 2890.40,807.39"/>
    </edge>
    <edge id=":1295503288_1" function="internal">
        <lane id=":1295503288_1_0" index="0" disallow="tram rail_urban rail rail_electric ship" speed="9.99" length="13.42" shape="2896.42,801.56 2892.64,802.03 2889.30,801.68 2886.41,800.52 2883.97,798.54"/>
    </edge>
    <edge id=":1295503288_2" function="internal">
        <lane id=":1295503288_2_0" index="0" disallow="tram rail_urban rail rail_electric ship" speed="9.23" length="9.30" shape="2887.23,806.93 2887.26,804.82 2886.72,802.72 2885.63,800.62 2883.97,798.54"/>
    </edge>
    <edge id=":1295522240_0" function="internal">
        <lane id=":1295522240_0_0" index="0" disallow="tram rail_urban rail rail_electric ship" speed="2.78" length="0.29" shape="3714.55,1549.23 3714.47,1549.25 3714.41,1549.26 3714.35,1549.27 3714.27,1549.29"/>
    </edge>
    <edge id=":1295522240_1" function="internal">
        <lane id=":1295522240_1_0" index="0" disallow="tram rail_urban rail rail_electric ship" speed="2.78" length="2.47" shape="3714.55,1549.23 3713.20,1548.71 3712.64,1548.02 3712.67,1547.89"/>
    </edge>
    <edge id=":1295522240_4" function="internal">
        <lane id=":1295522240_4_0" index="0" disallow="tram rail_urban rail rail_electric ship" speed="2.78" length="2.20" shape="3712.67,1547.89 3712.85,1547.15 3713.85,1546.11"/>
    </edge>
    <edge id=":1295522240_2" function="internal">
        <lane id=":1295522240_2_0" index="0" disallow="tram rail_urban rail rail_electric ship" speed="2.78" length="1.51" shape="3712.36,1546.31 3712.80,1546.26 3713.11,1546.23 3713.41,1546.19 3713.85,1546.11"/>
    </edge>
    <edge id=":1295522240_3" function="internal">
        <lane id=":1295522240_3_0" index="0" disallow="tram rail_urban rail rail_electric ship" speed="2.78" length="2.58" shape="3712.36,1546.31 3713.95,1546.34 3714.80,1546.84"/>
    </edge>
    <edge id=":1295522240_5" function="internal">
        <lane id=":1295522240_5_0" index="0" disallow="tram rail_urban rail rail_electric ship" speed="2.78" length="2.58" shape="3714.80,1546.84 3714.91,1547.82 3714.27,1549.29"/>
    </edge>
    <edge id=":1295522242_0" function="internal">
        <lane id=":1295522242_0_0" index="0" disallow="tram rail_urban rail rail_electric ship" speed="2.78" length="0.10" shape="3729.86,1545.80 3729.77,1545.82"/>
    </edge>
    <edge id=":1295522242_1" function="internal">
        <lane id=":1295522242_1_0" index="0" disallow="tram rail_urban rail rail_electric ship" speed="2.78" length="2.34" shape="3729.86,1545.80 3728.49,1545.36 3727.88,1544.70"/>
    </edge>
    <edge id=":1295522242_4" function="internal">
        <lane id=":1295522242_4_0" index="0" disallow="tram rail_urban rail rail_electric ship" speed="2.78" length="2.34" shape="3727.88,1544.70 3728.05,1543.82 3728.98,1542.72"/>
    </edge>
    <edge id=":1295522242_2" function="internal">
        <lane id=":1295522242_2_0" index="0" disallow="tram rail_urban rail rail_electric ship" speed="2.78" length="0.10" shape="3729.07,1542.70 3728.98,1542.72"/>
    </edge>
    <edge id=":1295522242_3" function="internal">
        <lane id=":1295522242_3_0" index="0" disallow="tram rail_urban rail rail_electric ship" speed="2.78" length="2.34" shape="3729.07,1542.70 3730.42,1543.22 3730.98,1543.91"/>
    </edge>
    <edge id=":1295522242_5" function="internal">
        <lane id=":1295522242_5_0" index="0" disallow="tram rail_urban rail rail_electric ship" speed="2.78" length="2.34" shape="3730.98,1543.91 3730.77,1544.78 3729.77,1545.82"/>
    </edge>
    <edge id=":1299653918_0" function="internal">
        <lane id=":1299653918_0_0" index="0" disallow="tram rail_urban rail rail_electric ship" speed="3.65" length="4.67" shape="2997.89,1001.79 2997.26,1003.09 2996.52,1003.60 2995.67,1003.31 2994.71,1002.23"/>
    </edge>
    <edge id=":1316121834_0" function="internal">
        <lane id=":1316121834_0_0" index="0" disallow="tram rail_urban rail rail_electric ship" speed="10.46" length="8.33" shape="3474.01,1222.52 3473.39,1220.13 3473.08,1218.39 3473.27,1216.72 3474.19,1214.49"/>
    </edge>
    <edge id=":1316121834_1" function="internal">
        <lane id=":1316121834_1_0" index="0" disallow="tram rail_urban rail rail_electric ship" speed="8.71" length="7.54" shape="3468.79,1219.44 3470.40,1218.78 3471.84,1217.74 3473.10,1216.31 3474.19,1214.49"/>
    </edge>
    <edge id=":1321588010_0" function="internal">
        <lane id=":1321588010_0_0" index="0" disallow="tram rail_urban rail rail_electric ship" speed="10.34" length="10.56" shape="4917.78,2402.86 4915.60,2402.82 4913.27,2403.41 4910.78,2404.61 4908.14,2406.43"/>
    </edge>
    <edge id=":1321588010_1" function="internal">
        <lane id=":1321588010_1_0" index="0" disallow="tram rail_urban rail rail_electric ship" speed="7.30" length="9.14" shape="4912.41,2393.35 4913.01,2395.80 4914.14,2397.67 4915.82,2398.96 4918.03,2399.66"/>
    </edge>
    <edge id=":1321588010_2" function="internal">
        <lane id=":1321588010_2_0" index="0" disallow="tram rail_urban rail rail_electric ship" speed="10.40" length="14.39" shape="4912.41,2393.35 4912.54,2397.51 4911.87,2401.07 4910.40,2404.05 4908.14,2406.43"/>
    </edge>
    <edge id=":1323035666_0" function="internal">
        <lane id=":1323035666_0_0" index="0" disallow="tram rail_urban rail rail_electric ship" speed="6.61" length="7.21" shape="5155.58,2824.90 5154.48,2823.34 5153.10,2822.34 5151.47,2821.90 5149.56,2822.01"/>
    </edge>
    <edge id=":1323035666_1" function="internal">
        <lane id=":1323035666_1_0" index="0" disallow="tram rail_urban rail rail_electric ship" speed="8.11" length="11.32" shape="5155.58,2824.90 5154.53,2822.09 5154.44,2819.43 5155.30,2816.91 5157.13,2814.54"/>
    </edge>
    <edge id=":1323035666_2" function="internal">
        <lane id=":1323035666_2_0" index="0" disallow="tram rail_urban rail rail_electric ship" speed="3.65" length="4.67" shape="5155.58,2824.90 5155.73,2823.46 5156.24,2822.73 5157.14,2822.71 5158.41,2823.39"/>
    </edge>
    <edge id=":1323035666_3" function="internal">
        <lane id=":1323035666_3_0" index="0" disallow="tram rail_urban rail rail_electric ship" speed="6.60" length="7.20" shape="5159.39,2816.80 5158.23,2818.31 5157.68,2819.92 5157.74,2821.61 5158.41,2823.39"/>
    </edge>
    <edge id=":1323035666_4" function="internal">
        <lane id=":1323035666_4_0" index="0" disallow="tram rail_urban rail rail_electric ship" speed="13.83" length="11.37" shape="5159.39,2816.80 5157.06,2818.97 5154.99,2820.38 5152.67,2821.30 5149.56,2822.01"/>
    </edge>
    <edge id=":1323035666_5" function="internal">
        <lane id=":1323035666_5_0" index="0" disallow="tram rail_urban rail rail_electric ship" speed="3.65" length="2.34" shape="5159.39,2816.80 5157.98,2817.08 5157.13,2816.80"/>
    </edge>
    <edge id=":1323035666_9" function="internal">
        <lane id=":1323035666_9_0" index="0" disallow="tram rail_urban rail rail_electric ship" speed="3.65" length="2.34" shape="5157.13,2816.80 5156.85,2815.95 5157.13,2814.54"/>
    </edge>
    <edge id=":1323035666_6" function="internal">
        <lane id=":1323035666_6_0" index="0" disallow="tram rail_urban rail rail_electric ship" speed="12.66" length="9.49" shape="5148.96,2818.87 5151.69,2818.28 5153.52,2817.60 5155.11,2816.47 5157.13,2814.54"/>
    </edge>
    <edge id=":1323035666_7" function="internal">
        <lane id=":1323035666_7_0" index="0" disallow="tram rail_urban rail rail_electric ship" speed="8.13" length="4.81" shape="5148.96,2818.87 5151.95,2818.69 5153.71,2819.17"/>
    </edge>
    <edge id=":1323035666_8" function="internal">
        <lane id=":1323035666_8_0" index="0" disallow="tram rail_urban rail rail_electric ship" speed="3.65" length="2.34" shape="5148.96,2818.87 5150.29,2819.43 5150.84,2820.14"/>
    </edge>
    <edge id=":1323035666_10" function="internal">
        <lane id=":1323035666_10_0" index="0" disallow="tram rail_urban rail rail_electric ship" speed="8.13" length="6.50" shape="5153.71,2819.17 5154.52,2819.39 5156.67,2820.96 5158.41,2823.39"/>
    </edge>
    <edge id=":1323035666_11" function="internal">
        <lane id=":1323035666_11_0" index="0" disallow="tram rail_urban rail rail_electric ship" speed="3.65" length="2.34" shape="5150.84,2820.14 5150.59,2821.00 5149.56,2822.01"/>
    </edge>
    <edge id=":1323049146_0" function="internal">
        <lane id=":1323049146_0_0" index="0" disallow="tram rail_urban rail rail_electric ship" speed="7.95" length="8.47" shape="4905.51,2376.24 4905.17,2378.18 4905.43,2380.11 4906.29,2382.05 4907.75,2384.00"/>
    </edge>
    <edge id=":1323049146_1" function="internal">
        <lane id=":1323049146_1_0" index="0" disallow="tram rail_urban rail rail_electric ship" speed="7.54" length="8.00" shape="4896.01,2379.27 4898.44,2378.72 4900.33,2377.86 4901.67,2376.70 4902.47,2375.24"/>
    </edge>
    <edge id=":1323049146_2" function="internal">
        <lane id=":1323049146_2_0" index="0" disallow="tram rail_urban rail rail_electric ship" speed="10.23" length="13.20" shape="4896.01,2379.27 4899.21,2379.20 4902.23,2379.96 4905.08,2381.56 4907.75,2384.00"/>
    </edge>
    <edge id=":1326614958_0" function="internal">
        <lane id=":1326614958_0_0" index="0" disallow="tram rail_urban rail rail_electric ship" speed="8.33" length="3.00" shape="3356.73,1663.46 3359.68,1664.00"/>
    </edge>
    <edge id=":1326614958_1" function="internal">
        <lane id=":1326614958_1_0" index="0" disallow="tram rail_urban rail rail_electric ship" speed="3.65" length="4.67" shape="3356.73,1663.46 3357.77,1664.46 3358.02,1665.32 3357.48,1666.03 3356.16,1666.60"/>
    </edge>
    <edge id=":1415808118_0" function="internal">
        <lane id=":1415808118_0_0" index="0" disallow="tram rail_urban rail rail_electric ship" speed="11.11" length="0.30" shape="3585.40,3309.70 3585.50,3309.97"/>
        <lane id=":1415808118_0_1" index="1" disallow="tram rail_urban rail rail_electric ship" speed="11.11" length="0.30" shape="3582.37,3310.73 3582.47,3311.03"/>
    </edge>
    <edge id=":1415808120_0" function="internal">
        <lane id=":1415808120_0_0" index="0" disallow="tram rail_urban rail rail_electric ship" speed="11.11" length="0.28" shape="3596.25,3340.78 3596.35,3341.08"/>
        <lane id=":1415808120_0_1" index="1" disallow="tram rail_urban rail rail_electric ship" speed="11.11" length="0.28" shape="3593.23,3341.84 3593.30,3342.06"/>
    </edge>
    <edge id=":1416633518_0" function="internal">
        <lane id=":1416633518_0_0" index="0" disallow="tram rail_urban rail rail_electric ship" speed="6.77" length="9.69" shape="3461.06,2794.23 3460.13,2791.60 3458.68,2789.88 3456.70,2789.05 3454.20,2789.13"/>
    </edge>
    <edge id=":1416633518_1" function="internal">
        <lane id=":1416633518_1_0" index="0" disallow="tram rail_urban rail rail_electric ship" speed="8.33" length="14.88" shape="3461.06,2794.23 3458.47,2779.58"/>
    </edge>
    <edge id=":1416633518_2" function="internal">
        <lane id=":1416633518_2_0" index="0" disallow="tram rail_urban rail rail_electric ship" speed="7.79" length="14.69" shape="3461.06,2794.23 3460.77,2790.14 3461.91,2787.11 3464.48,2785.12 3468.47,2784.18"/>
    </edge>
    <edge id=":1416633518_3" function="internal">
        <lane id=":1416633518_3_0" index="0" disallow="tram rail_urban rail rail_electric ship" speed="3.65" length="4.67" shape="3461.06,2794.23 3461.59,2792.89 3462.28,2792.33 3463.15,2792.55 3464.18,2793.56"/>
    </edge>
    <edge id=":1416633518_4" function="internal">
        <lane id=":1416633518_4_0" index="0" disallow="tram rail_urban rail rail_electric ship" speed="6.25" length="9.05" shape="3468.75,2787.37 3466.29,2787.94 3464.71,2789.17 3464.01,2791.04 3464.18,2793.56"/>
    </edge>
    <edge id=":1416633518_5" function="internal">
        <lane id=":1416633518_5_0" index="0" disallow="tram rail_urban rail rail_electric ship" speed="8.33" length="14.66" shape="3468.75,2787.37 3465.06,2787.69 3461.45,2788.06 3457.84,2788.52 3454.20,2789.13"/>
    </edge>
    <edge id=":1416633518_6" function="internal">
        <lane id=":1416633518_6_0" index="0" disallow="tram rail_urban rail rail_electric ship" speed="8.24" length="14.56" shape="3468.75,2787.37 3464.69,2787.18 3461.62,2785.82 3459.55,2783.28 3458.47,2779.58"/>
    </edge>
    <edge id=":1416633518_7" function="internal">
        <lane id=":1416633518_7_0" index="0" disallow="tram rail_urban rail rail_electric ship" speed="3.65" length="4.67" shape="3468.75,2787.37 3467.48,2786.67 3467.01,2785.91 3467.34,2785.08 3468.47,2784.18"/>
    </edge>
    <edge id=":1416633518_8" function="internal">
        <lane id=":1416633518_8_0" index="0" disallow="tram rail_urban rail rail_electric ship" speed="6.79" length="9.57" shape="3461.64,2779.15 3462.35,2781.55 3463.72,2783.19 3465.76,2784.06 3468.47,2784.18"/>
    </edge>
    <edge id=":1416633518_9" function="internal">
        <lane id=":1416633518_9_0" index="0" disallow="tram rail_urban rail rail_electric ship" speed="8.33" length="14.63" shape="3461.64,2779.15 3464.18,2793.56"/>
    </edge>
    <edge id=":1416633518_10" function="internal">
        <lane id=":1416633518_10_0" index="0" disallow="tram rail_urban rail rail_electric ship" speed="8.12" length="14.03" shape="3461.64,2779.15 3461.60,2782.90 3460.34,2785.81 3457.88,2787.89 3454.20,2789.13"/>
    </edge>
    <edge id=":1416633518_11" function="internal">
        <lane id=":1416633518_11_0" index="0" disallow="tram rail_urban rail rail_electric ship" speed="3.65" length="4.67" shape="3461.64,2779.15 3461.01,2780.44 3460.27,2780.95 3459.42,2780.66 3458.47,2779.58"/>
    </edge>
    <edge id=":1416633518_12" function="internal">
        <lane id=":1416633518_12_0" index="0" disallow="tram rail_urban rail rail_electric ship" speed="6.62" length="8.98" shape="3453.71,2785.96 3456.06,2785.17 3457.64,2783.84 3458.44,2781.98 3458.47,2779.58"/>
    </edge>
    <edge id=":1416633518_13" function="internal">
        <lane id=":1416633518_13_0" index="0" disallow="tram rail_urban rail rail_electric ship" speed="8.33" length="14.87" shape="3453.71,2785.96 3457.39,2785.35 3461.06,2784.88 3464.75,2784.51 3468.47,2784.18"/>
    </edge>
    <edge id=":1416633518_14" function="internal">
        <lane id=":1416633518_14_0" index="0" disallow="tram rail_urban rail rail_electric ship" speed="8.20" length="14.67" shape="3453.71,2785.96 3457.55,2785.83 3460.57,2787.05 3462.78,2789.63 3464.18,2793.56"/>
    </edge>
    <edge id=":1416633518_15" function="internal">
        <lane id=":1416633518_15_0" index="0" disallow="tram rail_urban rail rail_electric ship" speed="3.65" length="4.68" shape="3453.71,2785.96 3455.02,2786.57 3455.54,2787.30 3455.26,2788.15 3454.20,2789.13"/>
    </edge>
    <edge id=":1465033574_0" function="internal">
        <lane id=":1465033574_0_0" index="0" disallow="tram rail_urban rail rail_electric ship" speed="15.28" length="33.26" shape="1395.99,2864.83 1388.92,2868.62 1381.85,2873.60 1375.44,2879.36 1370.38,2885.53"/>
    </edge>
    <edge id=":1465033574_1" function="internal">
        <lane id=":1465033574_1_0" index="0" disallow="tram rail_urban rail rail_electric ship" speed="15.28" length="33.89" shape="1394.67,2861.91 1387.79,2866.04 1380.95,2871.61 1374.38,2877.61 1368.29,2883.02"/>
    </edge>
    <edge id=":1465033574_2" function="internal">
        <lane id=":1465033574_2_0" index="0" disallow="tram rail_urban rail rail_electric ship" speed="16.67" length="33.61" shape="1394.67,2861.91 1387.65,2865.83 1380.42,2870.82 1373.24,2875.90 1366.36,2880.11"/>
        <lane id=":1465033574_2_1" index="1" disallow="tram rail_urban rail rail_electric ship" speed="16.67" length="33.61" shape="1394.67,2861.91 1364.88,2877.27"/>
    </edge>
    <edge id=":1493365628_0" function="internal">
        <lane id=":1493365628_0_0" index="0" disallow="tram rail_urban rail rail_electric ship" speed="3.65" length="4.67" shape="2425.54,1335.61 2424.96,1336.93 2424.24,1337.47 2423.38,1337.21 2422.38,1336.17"/>
    </edge>
    <edge id=":1493365637_0" function="internal">
        <lane id=":1493365637_0_0" index="0" disallow="tram rail_urban rail rail_electric ship" speed="2.78" length="4.67" shape="3236.98,1149.12 3236.18,1150.32 3235.38,1150.72 3234.58,1150.32 3233.78,1149.12"/>
    </edge>
    <edge id=":1527036629_0" function="internal">
        <lane id=":1527036629_0_0" index="0" disallow="tram rail_urban rail rail_electric ship" speed="13.89" length="12.01" shape="3451.30,1227.45 3448.09,1227.00 3445.54,1226.03 3443.01,1224.92 3439.85,1224.02"/>
    </edge>
    <edge id=":1527036629_1" function="internal">
        <lane id=":1527036629_1_0" index="0" disallow="tram rail_urban rail rail_electric ship" speed="4.75" length="6.53" shape="3451.30,1227.45 3448.89,1225.79 3448.11,1224.16 3448.95,1222.56"/>
    </edge>
    <edge id=":1527036629_4" function="internal">
        <lane id=":1527036629_4_0" index="0" disallow="tram rail_urban rail rail_electric ship" speed="4.75" length="2.92" shape="3448.95,1222.56 3451.40,1220.98"/>
    </edge>
    <edge id=":1527036629_2" function="internal">
        <lane id=":1527036629_2_0" index="0" disallow="tram rail_urban rail rail_electric ship" speed="13.89" length="11.12" shape="3440.30,1220.85 3443.41,1221.25 3445.82,1221.24 3448.25,1221.07 3451.40,1220.98"/>
    </edge>
    <edge id=":1527036629_3" function="internal">
        <lane id=":1527036629_3_0" index="0" disallow="tram rail_urban rail rail_electric ship" speed="3.65" length="2.55" shape="3440.30,1220.85 3441.38,1221.82 3441.66,1222.66 3441.54,1222.84"/>
    </edge>
    <edge id=":1527036629_5" function="internal">
        <lane id=":1527036629_5_0" index="0" disallow="tram rail_urban rail rail_electric ship" speed="3.65" length="2.12" shape="3441.54,1222.84 3441.15,1223.40 3439.85,1224.02"/>
    </edge>
    <edge id=":1556009008_0" function="internal">
        <lane id=":1556009008_0_0" index="0" disallow="tram rail_urban rail rail_electric ship" speed="13.89" length="31.64" shape="4924.05,3877.20 4927.67,3872.98 4932.11,3865.98 4936.72,3857.91 4940.84,3850.48"/>
    </edge>
    <edge id=":1556009008_1" function="internal">
        <lane id=":1556009008_1_0" index="0" disallow="tram rail_urban rail rail_electric ship" speed="13.89" length="27.90" shape="4931.18,3876.92 4933.33,3870.01 4935.36,3863.41 4937.71,3856.96 4940.84,3850.48"/>
        <lane id=":1556009008_1_1" index="1" disallow="tram rail_urban rail rail_electric ship" speed="13.89" length="27.90" shape="4934.22,3877.93 4936.33,3871.11 4938.27,3864.70 4940.54,3858.44 4943.63,3852.05"/>
    </edge>
    <edge id=":1556009031_0" function="internal">
        <lane id=":1556009031_0_0" index="0" disallow="tram rail_urban rail rail_electric ship" speed="8.42" length="13.43" shape="4941.94,3902.53 4939.36,3903.03 4937.18,3904.79 4935.39,3907.81 4933.99,3912.07"/>
    </edge>
    <edge id=":1556009031_1" function="internal">
        <lane id=":1556009031_1_0" index="0" disallow="tram rail_urban rail rail_electric ship" speed="11.11" length="23.25" shape="4941.94,3902.53 4937.62,3902.25 4932.23,3901.71 4925.94,3900.85 4918.89,3899.64"/>
    </edge>
    <edge id=":1556009031_2" function="internal">
        <lane id=":1556009031_2_0" index="0" disallow="tram rail_urban rail rail_electric ship" speed="8.75" length="12.83" shape="4941.94,3902.53 4935.33,3901.51 4931.16,3899.12 4930.60,3897.90"/>
    </edge>
    <edge id=":1556009031_3" function="internal">
        <lane id=":1556009031_3_0" index="0" disallow="tram rail_urban rail rail_electric ship" speed="3.65" length="2.55" shape="4941.94,3902.53 4940.78,3901.68 4940.41,3900.86 4940.52,3900.67"/>
    </edge>
    <edge id=":1556009031_15" function="internal">
        <lane id=":1556009031_15_0" index="0" disallow="tram rail_urban rail rail_electric ship" speed="8.75" length="7.96" shape="4930.60,3897.90 4929.43,3895.37 4930.13,3890.25"/>
    </edge>
    <edge id=":1556009031_16" function="internal">
        <lane id=":1556009031_16_0" index="0" disallow="tram rail_urban rail rail_electric ship" speed="3.65" length="2.12" shape="4940.52,3900.67 4940.85,3900.08 4942.08,3899.33"/>
    </edge>
    <edge id=":1556009031_4" function="internal">
        <lane id=":1556009031_4_0" index="0" disallow="tram rail_urban rail rail_electric ship" speed="6.01" length="9.36" shape="4938.17,3892.92 4937.56,3895.62 4938.01,3897.59 4939.51,3898.83 4942.08,3899.33"/>
    </edge>
    <edge id=":1556009031_5" function="internal">
        <lane id=":1556009031_5_0" index="0" disallow="tram rail_urban rail rail_electric ship" speed="18.05" length="19.82" shape="4938.17,3892.92 4936.63,3896.42 4934.76,3900.27 4932.77,3905.04 4930.88,3911.31"/>
    </edge>
    <edge id=":1556009031_6" function="internal">
        <lane id=":1556009031_6_0" index="0" disallow="tram rail_urban rail rail_electric ship" speed="10.58" length="10.84" shape="4938.17,3892.92 4935.61,3896.98 4931.55,3899.45 4930.28,3899.66"/>
    </edge>
    <edge id=":1556009031_17" function="internal">
        <lane id=":1556009031_17_0" index="0" disallow="tram rail_urban rail rail_electric ship" speed="10.58" length="11.48" shape="4930.28,3899.66 4925.97,3900.34 4918.89,3899.64"/>
    </edge>
    <edge id=":1556009031_7" function="internal">
        <lane id=":1556009031_7_0" index="0" disallow="tram rail_urban rail rail_electric ship" speed="11.11" length="22.82" shape="4920.09,3893.36 4926.97,3895.05 4932.90,3896.96 4937.92,3898.57 4942.08,3899.33"/>
    </edge>
    <edge id=":1556009031_8" function="internal">
        <lane id=":1556009031_8_0" index="0" disallow="tram rail_urban rail rail_electric ship" speed="9.56" length="7.84" shape="4919.49,3896.50 4925.59,3898.45 4926.71,3899.34"/>
    </edge>
    <edge id=":1556009031_9" function="internal">
        <lane id=":1556009031_9_0" index="0" disallow="tram rail_urban rail rail_electric ship" speed="3.65" length="2.34" shape="4919.49,3896.50 4920.52,3897.51 4920.76,3898.37"/>
    </edge>
    <edge id=":1556009031_18" function="internal">
        <lane id=":1556009031_18_0" index="0" disallow="tram rail_urban rail rail_electric ship" speed="9.56" length="13.68" shape="4926.71,3899.34 4929.52,3901.57 4931.28,3905.86 4930.88,3911.31"/>
    </edge>
    <edge id=":1556009031_19" function="internal">
        <lane id=":1556009031_19_0" index="0" disallow="tram rail_urban rail rail_electric ship" speed="3.65" length="2.34" shape="4920.76,3898.37 4920.22,3899.08 4918.89,3899.64"/>
    </edge>
    <edge id=":1556009031_10" function="internal">