<?xml version="1.0" encoding="UTF-8"?>
<!-- generated on 2019-08-08 08:29:47.994880 by $Id$
  options: -n s1.net.xml -o s1raw.trips.xml -b 21600 -e 25200 <doubleminus>vehicle-class=pkw
-->
<routes xmlns:xsi="http://www.w3.org/2001/XMLSchema-instance" xsi:noNamespaceSchemaLocation="http://sumo.dlr.de/xsd/routes_file.xsd">
    <trip id="0" depart="21600.00" from="145245294#4" to="-39827683" type="pkw"/>
    <trip id="1" depart="21601.00" from="28889348#0" to="99899257#6" type="pkw"/>
    <trip id="2" depart="21602.00" from="-47126069#1" to="-26606781#3" type="pkw"/>
    <trip id="3" depart="21603.00" from="-26606758#2" to="-151245981#5" type="pkw"/>
    <trip id="4" depart="21604.00" from="56079080#0" to="24659267#0" type="pkw"/>
    <trip id="5" depart="21605.00" from="-202557106#4" to="31015607#3" type="pkw"/>
    <trip id="6" depart="21606.00" from="26152283#2" to="-24658267#1" type="pkw"/>
    <trip id="7" depart="21607.00" from="37986970#0" to="24659097#0" type="pkw"/>
    <trip id="8" depart="21608.00" from="24622356#0" to="-24659333#5" type="pkw"/>
    <trip id="9" depart="21609.00" from="30199095#0" to="-37835815#1" type="pkw"/>
    <trip id="10" depart="21610.00" from="29168131#0" to="28938944#1" type="pkw"/>
    <trip id="11" depart="21611.00" from="-134706508" to="151245981#4" type="pkw"/>
    <trip id="12" depart="21612.00" from="-145245294#6" to="28895665#0" type="pkw"/>
    <trip id="13" depart="21613.00" from="-29122095#4" to="150011527#0" type="pkw"/>
    <trip id="14" depart="21614.00" from="37880406#2" to="-204440154" type="pkw"/>
    <trip id="15" depart="21615.00" from="-28888628#3" to="26264818#0" type="pkw"/>
    <trip id="16" depart="21616.00" from="-26279974#0" to="76695058#0" type="pkw"/>
    <trip id="17" depart="21617.00" from="23612333#0" to="34918922#0" type="pkw"/>
    <trip id="18" depart="21618.00" from="26275718#1" to="-115885588#2" type="pkw"/>
    <trip id="19" depart="21619.00" from="29168127" to="-30758174#1" type="pkw"/>
    <trip id="20" depart="21620.00" from="45966168#1" to="24659333#4" type="pkw"/>
    <trip id="21" depart="21621.00" from="56131630#2" to="26279822" type="pkw"/>
    <trip id="22" depart="21622.00" from="80248207#0" to="-99899257#2" type="pkw"/>
    <trip id="23" depart="21623.00" from="-99899257#4" to="-37795337#2" type="pkw"/>
    <trip id="24" depart="21624.00" from="-145245294#4" to="10377180#1" type="pkw"/>
    <trip id="25" depart="21625.00" from="-26152283#2" to="202653130#0" type="pkw"/>
    <trip id="26" depart="21626.00" from="-99790289#0" to="26172406#5" type="pkw"/>
    <trip id="27" depart="21627.00" from="145245294#4" to="-39827692" type="pkw"/>
    <trip id="28" depart="21628.00" from="151245981#4" to="-62484769" type="pkw"/>
    <trip id="29" depart="21629.00" from="-202557105" to="-151569667#2" type="pkw"/>
    <trip id="31" depart="21631.00" from="-145245300#2" to="-98041787#2" type="pkw"/>
    <trip id="32" depart="21632.00" from="26465812#2" to="23612406#0" type="pkw"/>
    <trip id="33" depart="21633.00" from="204440148" to="-67150811#1" type="pkw"/>
    <trip id="34" depart="21634.00" from="80249230#0" to="-35149459" type="pkw"/>
    <trip id="35" depart="21635.00" from="-56066028" to="45966168#0" type="pkw"/>
    <trip id="36" depart="21636.00" from="-28895133#3" to="117864241#4" type="pkw"/>
    <trip id="37" depart="21637.00" from="-26606938#1" to="23612970#0" type="pkw"/>
    <trip id="38" depart="21638.00" from="23612824#1" to="28840834" type="pkw"/>
    <trip id="39" depart="21639.00" from="32613848#1" to="-80248203#1" type="pkw"/>
    <trip id="40" depart="21640.00" from="-28888628#6" to="-136090782" type="pkw"/>
    <trip id="41" depart="21641.00" from="98334308" to="-30199159#1" type="pkw"/>
    <trip id="42" depart="21642.00" from="151247593#0" to="99790289#1" type="pkw"/>
    <trip id="43" depart="21643.00" from="-151245977#0" to="-39827685" type="pkw"/>
    <trip id="44" depart="21644.00" from="44529417#0" to="26275698#4" type="pkw"/>
    <trip id="45" depart="21645.00" from="-26606928#1" to="-47126068#0" type="pkw"/>
    <trip id="46" depart="21646.00" from="291658652" to="-151503340#0" type="pkw"/>
    <trip id="47" depart="21647.00" from="72078635#0" to="28938688" type="pkw"/>
    <trip id="48" depart="21648.00" from="99899257#3" to="23631874#2" type="pkw"/>
    <trip id="49" depart="21649.00" from="-26606323" to="29122081" type="pkw"/>
    <trip id="50" depart="21650.00" from="26606758#1" to="-128037614#2" type="pkw"/>
    <trip id="51" depart="21651.00" from="28938986#0" to="-28888590#1" type="pkw"/>
    <trip id="52" depart="21652.00" from="20365433#0" to="-35408609" type="pkw"/>
    <trip id="53" depart="21653.00" from="24641237#3" to="-151503320#0" type="pkw"/>
    <trip id="55" depart="21655.00" from="-204440148" to="26465812#3" type="pkw"/>
    <trip id="57" depart="21657.00" from="26606328#0" to="-98636342#1" type="pkw"/>
    <trip id="58" depart="21658.00" from="10714404#0" to="-136090782" type="pkw"/>
    <trip id="59" depart="21659.00" from="151245977#3" to="26207295#0" type="pkw"/>
    <trip id="60" depart="21660.00" from="151608269#2" to="-67150811#1" type="pkw"/>
    <trip id="61" depart="21661.00" from="39827677#3" to="32667963#0" type="pkw"/>
    <trip id="62" depart="21662.00" from="35149876" to="-28888559#0" type="pkw"/>
    <trip id="64" depart="21664.00" from="-151608269#2" to="-26465812#9" type="pkw"/>
    <trip id="65" depart="21665.00" from="28888560#0" to="35408613" type="pkw"/>
    <trip id="66" depart="21666.00" from="54444455#0" to="-150013429#1" type="pkw"/>
    <trip id="67" depart="21667.00" from="-151608265#2" to="-28938716" type="pkw"/>
    <trip id="68" depart="21668.00" from="-117848287#2" to="28895133#3" type="pkw"/>
    <trip id="69" depart="21669.00" from="-81965124#4" to="-39827680" type="pkw"/>
    <trip id="70" depart="21670.00" from="-99790289#7" to="-48057968" type="pkw"/>
    <trip id="71" depart="21671.00" from="-23612321#4" to="151249567#0" type="pkw"/>
    <trip id="72" depart="21672.00" from="39827681" to="-151245962#1" type="pkw"/>
    <trip id="74" depart="21674.00" from="10714404#0" to="76695059#0" type="pkw"/>
    <trip id="75" depart="21675.00" from="-24659104" to="-151245981#4" type="pkw"/>
    <trip id="77" depart="21677.00" from="28895133#3" to="-150015917" type="pkw"/>
    <trip id="78" depart="21678.00" from="151569668" to="-98636342#4" type="pkw"/>
    <trip id="79" depart="21679.00" from="-26275715#5" to="151245981#6" type="pkw"/>
    <trip id="80" depart="21680.00" from="-28839688" to="26606427#2" type="pkw"/>
    <trip id="81" depart="21681.00" from="-117848283" to="29121907#4" type="pkw"/>
    <trip id="82" depart="21682.00" from="117848275#0" to="169343141#0" type="pkw"/>
    <trip id="83" depart="21683.00" from="-202557105" to="26607451" type="pkw"/>
    <trip id="84" depart="21684.00" from="26279822" to="-29121907#6" type="pkw"/>
    <trip id="85" depart="21685.00" from="34945956#0" to="-28895734#0" type="pkw"/>
    <trip id="86" depart="21686.00" from="28840703#0" to="23632454#8" type="pkw"/>
    <trip id="87" depart="21687.00" from="-117864241#4" to="151608264#0" type="pkw"/>
    <trip id="88" depart="21688.00" from="-98041790" to="-151247593#4" type="pkw"/>
    <trip id="89" depart="21689.00" from="202653128" to="-151245977#2" type="pkw"/>
    <trip id="90" depart="21690.00" from="-24641237#3" to="-26266495#2" type="pkw"/>
    <trip id="91" depart="21691.00" from="-47126068#0" to="-28889341#1" type="pkw"/>
    <trip id="92" depart="21692.00" from="-26152283#0" to="26308655#1" type="pkw"/>
    <trip id="94" depart="21694.00" from="-56131630#3" to="99899257#0" type="pkw"/>
    <trip id="95" depart="21695.00" from="26308731#0" to="-26279822" type="pkw"/>
    <trip id="96" depart="21696.00" from="-26465812#9" to="-177761761#0" type="pkw"/>
    <trip id="97" depart="21697.00" from="54444463#5" to="-35149944#0" type="pkw"/>
    <trip id="98" depart="21698.00" from="-29122028#1" to="-29121825#1" type="pkw"/>
    <trip id="99" depart="21699.00" from="80248207#0" to="-151503314" type="pkw"/>
    <trip id="100" depart="21700.00" from="-37795337#3" to="26152283#1" type="pkw"/>
    <trip id="101" depart="21701.00" from="28938218" to="28888602#0" type="pkw"/>
    <trip id="102" depart="21702.00" from="-28938224#1" to="28895891#1" type="pkw"/>
    <trip id="103" depart="21703.00" from="23631874#0" to="-29168209#1" type="pkw"/>
    <trip id="104" depart="21704.00" from="-10714206#2" to="25786493#1" type="pkw"/>
    <trip id="105" depart="21705.00" from="117864241#1" to="-151569675#3" type="pkw"/>
    <trip id="106" depart="21706.00" from="26265023#0" to="-26275715#1" type="pkw"/>
    <trip id="107" depart="21707.00" from="114354836" to="-151505130#6" type="pkw"/>
    <trip id="108" depart="21708.00" from="-23631910#4" to="-26266495#2" type="pkw"/>
    <trip id="109" depart="21709.00" from="-23631874#0" to="-23631874#2" type="pkw"/>
    <trip id="110" depart="21710.00" from="-150015919#1" to="26207295#0" type="pkw"/>
    <trip id="111" depart="21711.00" from="-99790289#9" to="-151608264#0" type="pkw"/>
    <trip id="112" depart="21712.00" from="-26279507" to="291658657" type="pkw"/>
    <trip id="113" depart="21713.00" from="153403704" to="-151503340#0" type="pkw"/>
    <trip id="114" depart="21714.00" from="150013426" to="151249568#0" type="pkw"/>
    <trip id="115" depart="21715.00" from="23632454#4" to="-151608263" type="pkw"/>
    <trip id="116" depart="21716.00" from="28889341#1" to="151245976#0" type="pkw"/>
    <trip id="117" depart="21717.00" from="-28840760#0" to="26856134" type="pkw"/>
    <trip id="118" depart="21718.00" from="39827683" to="145245300#3" type="pkw"/>
    <trip id="119" depart="21719.00" from="-28889338" to="-80249228#1" type="pkw"/>
    <trip id="120" depart="21720.00" from="28938563#1" to="151569673#0" type="pkw"/>
    <trip id="121" depart="21721.00" from="180141095#5" to="-26266495#2" type="pkw"/>
    <trip id="122" depart="21722.00" from="-151503339#5" to="-48057939#1" type="pkw"/>
    <trip id="123" depart="21723.00" from="-151245956" to="-151245977#0" type="pkw"/>
    <trip id="124" depart="21724.00" from="-28939061" to="-26275698#1" type="pkw"/>
    <trip id="125" depart="21725.00" from="202557106#0" to="26606758#0" type="pkw"/>
    <trip id="126" depart="21726.00" from="28938871#0" to="-151245962#2" type="pkw"/>
    <trip id="127" depart="21727.00" from="-26606781#3" to="29122095#2" type="pkw"/>
    <trip id="128" depart="21728.00" from="-26606938#2" to="28839833#0" type="pkw"/>
    <trip id="129" depart="21729.00" from="-80248203#1" to="28938944#2" type="pkw"/>
    <trip id="130" depart="21730.00" from="29168199#0" to="-38078743#6" type="pkw"/>
    <trip id="131" depart="21731.00" from="-80248207#6" to="-151247593#1" type="pkw"/>
    <trip id="132" depart="21732.00" from="24622769" to="-25786494" type="pkw"/>
    <trip id="134" depart="21734.00" from="24641237#1" to="151503314" type="pkw"/>
    <trip id="135" depart="21735.00" from="151569667#0" to="-29122081" type="pkw"/>
    <trip id="136" depart="21736.00" from="30933301" to="-29168211#0" type="pkw"/>
    <trip id="137" depart="21737.00" from="29168211#0" to="151503320#1" type="pkw"/>
    <trip id="138" depart="21738.00" from="-117848280" to="-151245956" type="pkw"/>
    <trip id="139" depart="21739.00" from="24896469#0" to="31928102#0" type="pkw"/>
    <trip id="140" depart="21740.00" from="37763706#1" to="-34636935#1" type="pkw"/>
    <trip id="142" depart="21742.00" from="28938658" to="98334311" type="pkw"/>
    <trip id="143" depart="21743.00" from="48057939#1" to="-151608261" type="pkw"/>
    <trip id="144" depart="21744.00" from="-26266744" to="-99790295#2" type="pkw"/>
    <trip id="145" depart="21745.00" from="-26264979#1" to="151245976#1" type="pkw"/>
    <trip id="146" depart="21746.00" from="-151503320#0" to="-117864241#4" type="pkw"/>
    <trip id="147" depart="21747.00" from="-150011524#2" to="26309457" type="pkw"/>
    <trip id="148" depart="21748.00" from="-80249225" to="-28889338" type="pkw"/>
    <trip id="149" depart="21749.00" from="-117864241#0" to="98613785" type="pkw"/>
    <trip id="150" depart="21750.00" from="28841195#1" to="153403703" type="pkw"/>
    <trip id="151" depart="21751.00" from="151503307#0" to="-28840824#3" type="pkw"/>
    <trip id="152" depart="21752.00" from="-37880407#1" to="-180141095#4" type="pkw"/>
    <trip id="153" depart="21753.00" from="48057939#1" to="26606956" type="pkw"/>
    <trip id="154" depart="21754.00" from="-28839668#3" to="-28888628#0" type="pkw"/>
    <trip id="155" depart="21755.00" from="202648009#0" to="34636935#0" type="pkw"/>
    <trip id="156" depart="21756.00" from="28888628#1" to="28895133#3" type="pkw"/>
    <trip id="157" depart="21757.00" from="10377180#0" to="-28938716" type="pkw"/>
    <trip id="158" depart="21758.00" from="26266386#0" to="30933301" type="pkw"/>
    <trip id="159" depart="21759.00" from="76695058#0" to="28840734#2" type="pkw"/>
    <trip id="160" depart="21760.00" from="-71190815" to="151505130#2" type="pkw"/>
    <trip id="161" depart="21761.00" from="28888628#5" to="-52873113#0" type="pkw"/>
    <trip id="162" depart="21762.00" from="28839269#0" to="32613847" type="pkw"/>
    <trip id="163" depart="21763.00" from="44529417#0" to="29121945" type="pkw"/>
    <trip id="164" depart="21764.00" from="151503307#1" to="-151245978#2" type="pkw"/>
    <trip id="165" depart="21765.00" from="80278005" to="37863824#0" type="pkw"/>
    <trip id="166" depart="21766.00" from="-151608265#0" to="26606758#0" type="pkw"/>
    <trip id="167" depart="21767.00" from="-37880405" to="151569667#0" type="pkw"/>
    <trip id="168" depart="21768.00" from="151503337#1" to="-151245969" type="pkw"/>
    <trip id="169" depart="21769.00" from="24659265" to="28889328#2" type="pkw"/>
    <trip id="171" depart="21771.00" from="-151245959" to="-80238995" type="pkw"/>
    <trip id="172" depart="21772.00" from="-28888602#1" to="-99790289#7" type="pkw"/>
    <trip id="173" depart="21773.00" from="-23612494#2" to="-47126069#1" type="pkw"/>
    <trip id="174" depart="21774.00" from="23612494#1" to="-28839920" type="pkw"/>
    <trip id="175" depart="21775.00" from="-26275715#0" to="51383966#0" type="pkw"/>
    <trip id="176" depart="21776.00" from="-142169748" to="-28839110#3" type="pkw"/>
    <trip id="177" depart="21777.00" from="-26279974#0" to="30701576#1" type="pkw"/>
    <trip id="178" depart="21778.00" from="-151505130#1" to="-30199159#1" type="pkw"/>
    <trip id="179" depart="21779.00" from="151245977#4" to="145245294#2" type="pkw"/>
    <trip id="180" depart="21780.00" from="-81965124#3" to="-28889338" type="pkw"/>
    <trip id="181" depart="21781.00" from="-37795337#3" to="117848287#2" type="pkw"/>
    <trip id="182" depart="21782.00" from="10377232" to="56066026#0" type="pkw"/>
    <trip id="183" depart="21783.00" from="-204440148" to="24659333#7" type="pkw"/>
    <trip id="184" depart="21784.00" from="150013424" to="28839833#1" type="pkw"/>
    <trip id="185" depart="21785.00" from="150013434" to="-117864241#5" type="pkw"/>
    <trip id="186" depart="21786.00" from="-28938597#1" to="117871434#0" type="pkw"/>
    <trip id="187" depart="21787.00" from="29168226#0" to="-99628769#0" type="pkw"/>
    <trip id="189" depart="21789.00" from="-26275294#1" to="-23612500#0" type="pkw"/>
    <trip id="190" depart="21790.00" from="28839668#2" to="-28889348#2" type="pkw"/>
    <trip id="191" depart="21791.00" from="28840834" to="-29122095#6" type="pkw"/>
    <trip id="192" depart="21792.00" from="-99790289#6" to="23612160#0" type="pkw"/>
    <trip id="193" depart="21793.00" from="-150011513#3" to="-28889328#2" type="pkw"/>
    <trip id="194" depart="21794.00" from="-250108226" to="115885587#3" type="pkw"/>
    <trip id="195" depart="21795.00" from="-30933302" to="169748104" type="pkw"/>
    <trip id="196" depart="21796.00" from="-115885585" to="-26308539#1" type="pkw"/>
    <trip id="197" depart="21797.00" from="-37863824#0" to="29122095#5" type="pkw"/>
    <trip id="198" depart="21798.00" from="30758172#10" to="-98636342#4" type="pkw"/>
    <trip id="199" depart="21799.00" from="151608265#0" to="26172406#5" type="pkw"/>
    <trip id="200" depart="21800.00" from="-114354836" to="28895133#0" type="pkw"/>
    <trip id="201" depart="21801.00" from="142930506" to="28888559#1" type="pkw"/>
    <trip id="202" depart="21802.00" from="-29168199#1" to="-30701576#0" type="pkw"/>
    <trip id="203" depart="21803.00" from="117864241#1" to="28840703#0" type="pkw"/>
    <trip id="204" depart="21804.00" from="-80249983" to="26264644#0" type="pkw"/>
    <trip id="205" depart="21805.00" from="24641456#0" to="150013420#0" type="pkw"/>
    <trip id="206" depart="21806.00" from="38078743#0" to="-117864241#0" type="pkw"/>
    <trip id="207" depart="21807.00" from="-151245962#0" to="-177761761#1" type="pkw"/>
    <trip id="208" depart="21808.00" from="26279822" to="-28889346#2" type="pkw"/>
    <trip id="209" depart="21809.00" from="-56066028" to="-29121825#0" type="pkw"/>
    <trip id="210" depart="21810.00" from="37880406#2" to="98636342#2" type="pkw"/>
    <trip id="211" depart="21811.00" from="49144169" to="25785337" type="pkw"/>
    <trip id="212" depart="21812.00" from="-117864241#4" to="-23632454#2" type="pkw"/>
    <trip id="213" depart="21813.00" from="24659104" to="-26275715#3" type="pkw"/>
    <trip id="214" depart="21814.00" from="80249229#11" to="-202557106#4" type="pkw"/>
    <trip id="215" depart="21815.00" from="37880405" to="80248200#0" type="pkw"/>
    <trip id="216" depart="21816.00" from="-28889402#0" to="37880406#0" type="pkw"/>
    <trip id="218" depart="21818.00" from="-23631874#0" to="80248207#0" type="pkw"/>
    <trip id="219" depart="21819.00" from="-80249229#10" to="-171250492" type="pkw"/>
    <trip id="221" depart="21821.00" from="-24641237#2" to="-28840824#1" type="pkw"/>
    <trip id="222" depart="21822.00" from="29122028#0" to="-151503320#0" type="pkw"/>
    <trip id="223" depart="21823.00" from="-151245962#0" to="26275715#1" type="pkw"/>
    <trip id="224" depart="21824.00" from="99899257#3" to="-39827677#4" type="pkw"/>
    <trip id="226" depart="21826.00" from="-28895891#1" to="-28938944#0" type="pkw"/>
    <trip id="227" depart="21827.00" from="-30636979" to="31255851#0" type="pkw"/>
    <trip id="228" depart="21828.00" from="80248200#0" to="-151608269#1" type="pkw"/>
    <trip id="229" depart="21829.00" from="-160379447#3" to="84488623#3" type="pkw"/>
    <trip id="230" depart="21830.00" from="72524600#2" to="-117864241#4" type="pkw"/>
    <trip id="231" depart="21831.00" from="99628769#1" to="-26152283#2" type="pkw"/>
    <trip id="233" depart="21833.00" from="28840734#2" to="-37795337#2" type="pkw"/>
    <trip id="234" depart="21834.00" from="-26264818#1" to="-151569687#1" type="pkw"/>
    <trip id="235" depart="21835.00" from="-24658277" to="28839269#0" type="pkw"/>
    <trip id="236" depart="21836.00" from="-98334308" to="26607387" type="pkw"/>
    <trip id="237" depart="21837.00" from="10714447" to="-24659229#1" type="pkw"/>
    <trip id="238" depart="21838.00" from="-35408616#1" to="151608265#0" type="pkw"/>
    <trip id="239" depart="21839.00" from="-24659267#0" to="151503339#6" type="pkw"/>
    <trip id="240" depart="21840.00" from="28839269#0" to="177761761#2" type="pkw"/>
    <trip id="241" depart="21841.00" from="26607352#2" to="-26172412#2" type="pkw"/>
    <trip id="242" depart="21842.00" from="150013424" to="-10714206#0" type="pkw"/>
    <trip id="243" depart="21843.00" from="150011527#0" to="28888628#7" type="pkw"/>
    <trip id="244" depart="21844.00" from="-48057939#2" to="84488623#2" type="pkw"/>
    <trip id="245" depart="21845.00" from="47126069#1" to="28839875" type="pkw"/>
    <trip id="246" depart="21846.00" from="-23631874#3" to="-37831729#1" type="pkw"/>
    <trip id="247" depart="21847.00" from="151608264#0" to="-151503320#0" type="pkw"/>
    <trip id="248" depart="21848.00" from="224620693#0" to="-150015922#3" type="pkw"/>
    <trip id="249" depart="21849.00" from="-151503307#0" to="100466670#1" type="pkw"/>
    <trip id="250" depart="21850.00" from="-39827677#3" to="-151245968" type="pkw"/>
    <trip id="251" depart="21851.00" from="32613847" to="28895665#0" type="pkw"/>
    <trip id="252" depart="21852.00" from="-28889350#1" to="37763706#0" type="pkw"/>
    <trip id="253" depart="21853.00" from="-28967588#1" to="28889346#3" type="pkw"/>
    <trip id="254" depart="21854.00" from="-30701576#0" to="-28939003" type="pkw"/>
    <trip id="255" depart="21855.00" from="-28895752#1" to="150015919#0" type="pkw"/>
    <trip id="256" depart="21856.00" from="48057939#1" to="-26309450#0" type="pkw"/>
    <trip id="257" depart="21857.00" from="-23632454#3" to="-28895634#0" type="pkw"/>
    <trip id="258" depart="21858.00" from="30701576#1" to="151245981#2" type="pkw"/>
    <trip id="259" depart="21859.00" from="23631910#1" to="-29168226#1" type="pkw"/>
    <trip id="260" depart="21860.00" from="-151250743#4" to="10377180#1" type="pkw"/>
    <trip id="261" depart="21861.00" from="150013422#0" to="24658326#0" type="pkw"/>
    <trip id="262" depart="21862.00" from="-52873113#1" to="-23632454#6" type="pkw"/>
    <trip id="263" depart="21863.00" from="23612364" to="54444455#0" type="pkw"/>
    <trip id="264" depart="21864.00" from="151247593#2" to="37986971#0" type="pkw"/>
    <trip id="265" depart="21865.00" from="23631852#3" to="71244298#1" type="pkw"/>
    <trip id="266" depart="21866.00" from="151245973" to="238573754" type="pkw"/>
    <trip id="267" depart="21867.00" from="37795336" to="99899257#2" type="pkw"/>
    <trip id="268" depart="21868.00" from="-24658267#0" to="-54444463#0" type="pkw"/>
    <trip id="269" depart="21869.00" from="-26266744" to="37795337#4" type="pkw"/>
    <trip id="270" depart="21870.00" from="-45966168#0" to="134706506#0" type="pkw"/>
    <trip id="271" depart="21871.00" from="-67150810#5" to="81960028#1" type="pkw"/>
    <trip id="272" depart="21872.00" from="-24659267#0" to="23630913#0" type="pkw"/>
    <trip id="274" depart="21874.00" from="-5182184#1" to="-151245978#2" type="pkw"/>
    <trip id="275" depart="21875.00" from="99899257#0" to="-150015936#1" type="pkw"/>
    <trip id="276" depart="21876.00" from="-151245981#4" to="-28888628#6" type="pkw"/>
    <trip id="277" depart="21877.00" from="24659229#0" to="24659104" type="pkw"/>
    <trip id="278" depart="21878.00" from="151503339#0" to="-25785574#1" type="pkw"/>
    <trip id="279" depart="21879.00" from="28839757#0" to="-151245981#4" type="pkw"/>
    <trip id="280" depart="21880.00" from="26275715#2" to="142169748" type="pkw"/>
    <trip id="281" depart="21881.00" from="56131630#2" to="-37795336" type="pkw"/>
    <trip id="282" depart="21882.00" from="-151245981#3" to="34919017#0" type="pkw"/>
    <trip id="283" depart="21883.00" from="37795703#0" to="-151245977#6" type="pkw"/>
    <trip id="284" depart="21884.00" from="24641273#0" to="26266495#2" type="pkw"/>
    <trip id="285" depart="21885.00" from="24659333#4" to="56186612#0" type="pkw"/>
    <trip id="286" depart="21886.00" from="-32612262" to="-26308655#1" type="pkw"/>
    <trip id="287" depart="21887.00" from="23612364" to="145245294#6" type="pkw"/>
    <trip id="288" depart="21888.00" from="28839869" to="31015238" type="pkw"/>
    <trip id="289" depart="21889.00" from="26172405#0" to="-28938969" type="pkw"/>
    <trip id="291" depart="21891.00" from="151608265#1" to="26606938#2" type="pkw"/>
    <trip id="292" depart="21892.00" from="150015943" to="-204440152#4" type="pkw"/>
    <trip id="293" depart="21893.00" from="72078635#1" to="32613717" type="pkw"/>
    <trip id="294" depart="21894.00" from="23632454#7" to="-35408615#0" type="pkw"/>
    <trip id="295" depart="21895.00" from="-48057939#1" to="24658799#1" type="pkw"/>
    <trip id="296" depart="21896.00" from="-151245963#0" to="26279429" type="pkw"/>
    <trip id="297" depart="21897.00" from="151505130#4" to="-171250492" type="pkw"/>
    <trip id="298" depart="21898.00" from="-23631874#3" to="-151608264#0" type="pkw"/>
    <trip id="299" depart="21899.00" from="37863827" to="-151245979" type="pkw"/>
    <trip id="300" depart="21900.00" from="20365433#0" to="-23612321#4" type="pkw"/>
    <trip id="301" depart="21901.00" from="151503339#6" to="24659229#1" type="pkw"/>
    <trip id="302" depart="21902.00" from="-26856427#6" to="-56066029#1" type="pkw"/>
    <trip id="303" depart="21903.00" from="39827677#3" to="-80249226#1" type="pkw"/>
    <trip id="304" depart="21904.00" from="-28839833#0" to="-285259349#0" type="pkw"/>
    <trip id="305" depart="21905.00" from="-98041790" to="151245977#2" type="pkw"/>
    <trip id="306" depart="21906.00" from="23632454#7" to="-47126069#0" type="pkw"/>
    <trip id="307" depart="21907.00" from="-26275715#5" to="-26275715#3" type="pkw"/>
    <trip id="308" depart="21908.00" from="150013420#0" to="28889402#1" type="pkw"/>
    <trip id="309" depart="21909.00" from="28888590#0" to="23631874#1" type="pkw"/>
    <trip id="310" depart="21910.00" from="-98636353#4" to="56131630#0" type="pkw"/>
    <trip id="311" depart="21911.00" from="-151245981#3" to="-28839833#1" type="pkw"/>
    <trip id="312" depart="21912.00" from="-23612824#3" to="44813647" type="pkw"/>
    <trip id="313" depart="21913.00" from="-142169748" to="-23631890" type="pkw"/>
    <trip id="314" depart="21914.00" from="145245294#5" to="-98613782" type="pkw"/>
    <trip id="315" depart="21915.00" from="145245300#3" to="-39742133#1" type="pkw"/>
    <trip id="316" depart="21916.00" from="202653130#0" to="26279822" type="pkw"/>
    <trip id="317" depart="21917.00" from="26266674#0" to="24622466#0" type="pkw"/>
    <trip id="319" depart="21919.00" from="-117848275#1" to="150011532#0" type="pkw"/>
    <trip id="320" depart="21920.00" from="-117864241#5" to="-23631852#2" type="pkw"/>
    <trip id="321" depart="21921.00" from="30933301" to="99899257#6" type="pkw"/>
    <trip id="322" depart="21922.00" from="26266518" to="26309244#0" type="pkw"/>
    <trip id="323" depart="21923.00" from="-23612494#0" to="-56131630#3" type="pkw"/>
    <trip id="324" depart="21924.00" from="-193320683" to="-28895475#0" type="pkw"/>
    <trip id="325" depart="21925.00" from="177761753" to="25785561#0" type="pkw"/>
    <trip id="327" depart="21927.00" from="10377180#1" to="-26275715#2" type="pkw"/>
    <trip id="328" depart="21928.00" from="-99790289#7" to="180141095#5" type="pkw"/>
    <trip id="329" depart="21929.00" from="-54444455#3" to="29168199#0" type="pkw"/>
    <trip id="330" depart="21930.00" from="150011513#4" to="151245977#6" type="pkw"/>
    <trip id="331" depart="21931.00" from="-117864241#0" to="32613851#0" type="pkw"/>
    <trip id="332" depart="21932.00" from="37875613#0" to="26266386#1" type="pkw"/>
    <trip id="334" depart="21934.00" from="30199095#0" to="-28839110#3" type="pkw"/>
    <trip id="336" depart="21936.00" from="26308937" to="-151245981#6" type="pkw"/>
    <trip id="337" depart="21937.00" from="-177761761#0" to="153403704" type="pkw"/>
    <trip id="338" depart="21938.00" from="23631910#0" to="-28889328#2" type="pkw"/>
    <trip id="339" depart="21939.00" from="-26172406#4" to="-23612500#0" type="pkw"/>
    <trip id="340" depart="21940.00" from="-54444455#3" to="151503337#0" type="pkw"/>
    <trip id="341" depart="21941.00" from="37986966#0" to="150013420#0" type="pkw"/>
    <trip id="342" depart="21942.00" from="-98101420#1" to="-24659333#5" type="pkw"/>
    <trip id="343" depart="21943.00" from="291658656" to="26266505" type="pkw"/>
    <trip id="344" depart="21944.00" from="26465812#3" to="-26465812#1" type="pkw"/>
    <trip id="345" depart="21945.00" from="-28839833#1" to="-28895665#0" type="pkw"/>
    <trip id="346" depart="21946.00" from="35408608" to="-26606427#2" type="pkw"/>
    <trip id="347" depart="21947.00" from="-26309457" to="-151245974#1" type="pkw"/>
    <trip id="348" depart="21948.00" from="35408612" to="-28888628#6" type="pkw"/>
    <trip id="349" depart="21949.00" from="26308539#1" to="24658420#0" type="pkw"/>
    <trip id="350" depart="21950.00" from="-28889328#2" to="-32612740#1" type="pkw"/>
    <trip id="351" depart="21951.00" from="-37763706#1" to="115885588#1" type="pkw"/>
    <trip id="352" depart="21952.00" from="67150810#1" to="28895734#1" type="pkw"/>
    <trip id="353" depart="21953.00" from="26275698#4" to="100290485#0" type="pkw"/>
    <trip id="354" depart="21954.00" from="-72078635#2" to="-76840560#1" type="pkw"/>
    <trip id="355" depart="21955.00" from="-169343141#2" to="56066026#0" type="pkw"/>
    <trip id="356" depart="21956.00" from="81960028#0" to="24622466#0" type="pkw"/>
    <trip id="357" depart="21957.00" from="150013429#0" to="54444453#0" type="pkw"/>
    <trip id="358" depart="21958.00" from="26856134" to="31015237#0" type="pkw"/>
    <trip id="359" depart="21959.00" from="-26856427#6" to="26309457" type="pkw"/>
    <trip id="360" depart="21960.00" from="-26275715#4" to="24659267#1" type="pkw"/>
    <trip id="361" depart="21961.00" from="202653126" to="-26308731#1" type="pkw"/>
    <trip id="362" depart="21962.00" from="-28839110#3" to="98613785" type="pkw"/>
    <trip id="363" depart="21963.00" from="26465812#0" to="151569677" type="pkw"/>
    <trip id="364" depart="21964.00" from="-26465812#4" to="30758174#0" type="pkw"/>
    <trip id="365" depart="21965.00" from="202557101#0" to="151503340#0" type="pkw"/>
    <trip id="366" depart="21966.00" from="-151503337#1" to="26606956" type="pkw"/>
    <trip id="367" depart="21967.00" from="-28839875" to="32613848#0" type="pkw"/>
    <trip id="368" depart="21968.00" from="25785574#0" to="-28938224#1" type="pkw"/>
    <trip id="369" depart="21969.00" from="-56066028" to="24659229#0" type="pkw"/>
    <trip id="370" depart="21970.00" from="114354836" to="28840734#2" type="pkw"/>
    <trip id="371" depart="21971.00" from="145245294#5" to="151569676" type="pkw"/>