<?xml version="1.0" encoding="UTF-8"?>
<!-- generated on 2019-08-08 08:46:23.265577 by $Id$
  options: -n s1.net.xml -o s1raw.trips.xml -b 21600 -e 25200
-->
<routes xmlns:xsi="http://www.w3.org/2001/XMLSchema-instance" xsi:noNamespaceSchemaLocation="http://sumo.dlr.de/xsd/routes_file.xsd">
    <trip id="0" depart="21600.00" from="28841195#1" to="-37880407#0"/>
    <trip id="1" depart="21601.00" from="10377180#1" to="117848268"/>
    <trip id="2" depart="21602.00" from="202653128" to="-28839833#1"/>
    <trip id="3" depart="21603.00" from="-71244298#0" to="-115885588#1"/>
    <trip id="4" depart="21604.00" from="25786493#1" to="151245981#4"/>
    <trip id="5" depart="21605.00" from="25786507#0" to="80249229#11"/>
    <trip id="6" depart="21606.00" from="-37795337#3" to="76695058#0"/>
    <trip id="7" depart="21607.00" from="24658326#0" to="-115885588#4"/>
    <trip id="8" depart="21608.00" from="26308802#2" to="76695058#0"/>
    <trip id="9" depart="21609.00" from="29122168" to="-151245981#0"/>
    <trip id="10" depart="21610.00" from="81965124#5" to="26266563#1"/>
    <trip id="11" depart="21611.00" from="-99628769#0" to="37982571"/>
    <trip id="12" depart="21612.00" from="-26279974#0" to="-250108226"/>
    <trip id="13" depart="21613.00" from="-151503337#1" to="4862758"/>
    <trip id="14" depart="21614.00" from="-29121907#6" to="23632454#5"/>
    <trip id="15" depart="21615.00" from="-32613851#0" to="28938944#1"/>
    <trip id="16" depart="21616.00" from="151569675#1" to="-151505130#5"/>
    <trip id="17" depart="21617.00" from="23632454#3" to="54444463#1"/>
    <trip id="18" depart="21618.00" from="32612009" to="26308802#2"/>
    <trip id="19" depart="21619.00" from="-151608264#0" to="81965119#0"/>
    <trip id="20" depart="21620.00" from="183824580#2" to="-150011514#8"/>
    <trip id="21" depart="21621.00" from="-28839875" to="29117658#0"/>
    <trip id="22" depart="21622.00" from="-32613851#0" to="-23612824#4"/>
    <trip id="23" depart="21623.00" from="-29168209#1" to="-26856427#3"/>
    <trip id="24" depart="21624.00" from="-177761761#1" to="28889341#0"/>
    <trip id="25" depart="21625.00" from="151503320#1" to="-32612740#1"/>
    <trip id="26" depart="21626.00" from="-34945956#1" to="28967588#1"/>
    <trip id="27" depart="21627.00" from="32612740#0" to="24641237#2"/>
    <trip id="28" depart="21628.00" from="26308539#1" to="-291658652"/>
    <trip id="29" depart="21629.00" from="35408615#1" to="117848283"/>
    <trip id="30" depart="21630.00" from="134706508" to="10377008"/>
    <trip id="31" depart="21631.00" from="-29122028#1" to="-29168226#1"/>
    <trip id="32" depart="21632.00" from="30933301" to="28840824#3"/>
    <trip id="33" depart="21633.00" from="-151503307#1" to="151569667#0"/>
    <trip id="34" depart="21634.00" from="28938830#0" to="54444455#4"/>
    <trip id="35" depart="21635.00" from="28938563#1" to="183824580#2"/>
    <trip id="36" depart="21636.00" from="193320683" to="37880406#2"/>
    <trip id="37" depart="21637.00" from="28888628#6" to="-151503314"/>
    <trip id="38" depart="21638.00" from="-24622466#1" to="80249227"/>
    <trip id="39" depart="21639.00" from="-23631874#0" to="28840824#1"/>
    <trip id="40" depart="21640.00" from="-183824580#2" to="-26606758#0"/>
    <trip id="41" depart="21641.00" from="-5182184#1" to="-151245974#1"/>
    <trip id="42" depart="21642.00" from="-28895734#1" to="4862758"/>
    <trip id="43" depart="21643.00" from="150015929#0" to="-28938850#2"/>
    <trip id="44" depart="21644.00" from="-98636345#2" to="-26607352#1"/>
    <trip id="45" depart="21645.00" from="-28938944#2" to="34919017#1"/>
    <trip id="46" depart="21646.00" from="28839668#2" to="24659333#0"/>
    <trip id="47" depart="21647.00" from="151245976#1" to="204440152#0"/>
    <trip id="48" depart="21648.00" from="-204440148" to="28888559#1"/>
    <trip id="49" depart="21649.00" from="150011513#2" to="31928172"/>
    <trip id="50" depart="21650.00" from="145464623" to="-29117658#1"/>
    <trip id="51" depart="21651.00" from="37907290" to="-28895891#0"/>
    <trip id="52" depart="21652.00" from="-81960028#8" to="28888602#1"/>
    <trip id="53" depart="21653.00" from="285259349#0" to="-28840806"/>
    <trip id="54" depart="21654.00" from="28840734#2" to="117871434#0"/>
    <trip id="55" depart="21655.00" from="-26606427#1" to="-37795703#1"/>
    <trip id="56" depart="21656.00" from="-26279637#1" to="151569672"/>
    <trip id="57" depart="21657.00" from="291658652" to="302774796#0"/>
    <trip id="58" depart="21658.00" from="-28895475#3" to="26172406#0"/>
    <trip id="59" depart="21659.00" from="23612160#0" to="115885587#3"/>
    <trip id="60" depart="21660.00" from="28840806" to="-26275698#3"/>
    <trip id="61" depart="21661.00" from="134706508" to="151245956"/>
    <trip id="62" depart="21662.00" from="-31015607#4" to="-23612824#1"/>
    <trip id="63" depart="21663.00" from="-26152290" to="26465812#6"/>
    <trip id="64" depart="21664.00" from="-26308802#0" to="23632454#5"/>
    <trip id="65" depart="21665.00" from="-28888628#6" to="-28938830#0"/>
    <trip id="66" depart="21666.00" from="26607352#2" to="151503339#6"/>
    <trip id="67" depart="21667.00" from="28888628#1" to="150013430#0"/>
    <trip id="68" depart="21668.00" from="-28839688" to="10377152#3"/>
    <trip id="69" depart="21669.00" from="301750524#4" to="26172405#0"/>
    <trip id="70" depart="21670.00" from="24641237#1" to="28939061"/>
    <trip id="71" depart="21671.00" from="160379447#0" to="-26266562"/>
    <trip id="72" depart="21672.00" from="44529418#2" to="24659097#0"/>
    <trip id="73" depart="21673.00" from="-98636342#1" to="-202557105"/>
    <trip id="74" depart="21674.00" from="23612321#5" to="151245977#6"/>
    <trip id="75" depart="21675.00" from="180141095#5" to="25785337"/>
    <trip id="76" depart="21676.00" from="32613851#0" to="24622769"/>
    <trip id="77" depart="21677.00" from="39827677#4" to="28888602#0"/>
    <trip id="78" depart="21678.00" from="28840806" to="56186612#0"/>
    <trip id="79" depart="21679.00" from="28895665#1" to="-28888628#4"/>
    <trip id="80" depart="21680.00" from="23612500#1" to="151569688"/>
    <trip id="81" depart="21681.00" from="34919017#0" to="-28841082"/>
    <trip id="82" depart="21682.00" from="-44529418#3" to="-48057939#1"/>
    <trip id="83" depart="21683.00" from="39827677#0" to="115885588#2"/>
    <trip id="84" depart="21684.00" from="-193320683" to="-151245977#5"/>
    <trip id="85" depart="21685.00" from="-99899257#1" to="-37795337#2"/>
    <trip id="86" depart="21686.00" from="-26266562" to="-29121854#0"/>
    <trip id="87" depart="21687.00" from="23611637" to="150013422#0"/>
    <trip id="88" depart="21688.00" from="-23612321#4" to="-172664354"/>
    <trip id="89" depart="21689.00" from="29168209#3" to="-35408615#2"/>
    <trip id="90" depart="21690.00" from="-28888628#1" to="-99899257#5"/>
    <trip id="91" depart="21691.00" from="133146445#0" to="98640410#0"/>
    <trip id="92" depart="21692.00" from="28889339" to="-151608269#2"/>
    <trip id="93" depart="21693.00" from="28888560#0" to="-151503339#5"/>
    <trip id="94" depart="21694.00" from="54444463#5" to="24658426"/>
    <trip id="95" depart="21695.00" from="151245964#0" to="28967588#2"/>
    <trip id="96" depart="21696.00" from="-37795337#3" to="-99790289#7"/>
    <trip id="97" depart="21697.00" from="-39827677#3" to="24641210"/>
    <trip id="98" depart="21698.00" from="80249228#0" to="-28888628#1"/>
    <trip id="99" depart="21699.00" from="-151503307#1" to="26275698#4"/>
    <trip id="100" depart="21700.00" from="-24659333#3" to="76840560#2"/>
    <trip id="101" depart="21701.00" from="-26264979#1" to="28840760#1"/>
    <trip id="102" depart="21702.00" from="28967588#0" to="142169748"/>
    <trip id="103" depart="21703.00" from="10714206#0" to="80278004"/>
    <trip id="104" depart="21704.00" from="-151503339#5" to="-29118275"/>
    <trip id="105" depart="21705.00" from="80249229#9" to="-26266563#0"/>
    <trip id="106" depart="21706.00" from="151503320#1" to="-80249226#1"/>
    <trip id="107" depart="21707.00" from="-29121825#1" to="31928172"/>
    <trip id="108" depart="21708.00" from="-29168211#0" to="-44529418#3"/>
    <trip id="109" depart="21709.00" from="24641333" to="117848281"/>
    <trip id="110" depart="21710.00" from="39827685" to="80278003"/>
    <trip id="111" depart="21711.00" from="24622466#0" to="151608265#1"/>
    <trip id="112" depart="21712.00" from="26308937" to="29121825#1"/>
    <trip id="113" depart="21713.00" from="-23608953#5" to="23612970#0"/>
    <trip id="114" depart="21714.00" from="-177761761#4" to="26606323"/>
    <trip id="115" depart="21715.00" from="28895865#0" to="-28938597#3"/>
    <trip id="116" depart="21716.00" from="-99790295#1" to="56131630#5"/>
    <trip id="117" depart="21717.00" from="44529417#0" to="28888628#1"/>
    <trip id="118" depart="21718.00" from="84488623#0" to="-28839833#0"/>
    <trip id="119" depart="21719.00" from="38007899#0" to="29168199#0"/>
    <trip id="120" depart="21720.00" from="-26267403#2" to="-24658810"/>
    <trip id="121" depart="21721.00" from="23631874#0" to="-39827677#1"/>
    <trip id="122" depart="21722.00" from="24659267#2" to="26172405#0"/>
    <trip id="123" depart="21723.00" from="39827677#0" to="249700302#1"/>
    <trip id="124" depart="21724.00" from="115885588#3" to="-150013422#2"/>
    <trip id="125" depart="21725.00" from="10377232" to="29123169"/>
    <trip id="126" depart="21726.00" from="-31015607#2" to="-28938944#2"/>
    <trip id="127" depart="21727.00" from="45966168#1" to="31255852#2"/>
    <trip id="128" depart="21728.00" from="76840560#0" to="-35408614"/>
    <trip id="129" depart="21729.00" from="29168211#1" to="28889425#0"/>
    <trip id="130" depart="21730.00" from="-24659333#6" to="-26856427#3"/>
    <trip id="131" depart="21731.00" from="27066601" to="99899257#3"/>
    <trip id="132" depart="21732.00" from="-82246266#1" to="-34945956#0"/>
    <trip id="133" depart="21733.00" from="-72524603" to="-150011514#9"/>
    <trip id="134" depart="21734.00" from="-26309129" to="-28841070"/>
    <trip id="135" depart="21735.00" from="151503337#1" to="150013429#0"/>
    <trip id="136" depart="21736.00" from="28895475#1" to="145245300#0"/>
    <trip id="137" depart="21737.00" from="24658277" to="-39827677#0"/>
    <trip id="138" depart="21738.00" from="28840806" to="-285259349#3"/>
    <trip id="139" depart="21739.00" from="-23612321#5" to="-29168209#2"/>
    <trip id="140" depart="21740.00" from="-26275715#2" to="-180141095#6"/>
    <trip id="141" depart="21741.00" from="23612284#2" to="151608269#2"/>
    <trip id="142" depart="21742.00" from="-26465812#4" to="-28840824#1"/>
    <trip id="143" depart="21743.00" from="-99790295#1" to="-28839869"/>
    <trip id="144" depart="21744.00" from="-28938597#0" to="302774796#1"/>
    <trip id="145" depart="21745.00" from="26607352#5" to="-117848283"/>
    <trip id="146" depart="21746.00" from="-26275718#0" to="-98334308"/>
    <trip id="147" depart="21747.00" from="30636979" to="29122578#0"/>
    <trip id="148" depart="21748.00" from="45966168#1" to="-29168199#1"/>
    <trip id="149" depart="21749.00" from="-250108226" to="-54444453#1"/>
    <trip id="150" depart="21750.00" from="80278003" to="-23612824#0"/>
    <trip id="151" depart="21751.00" from="-151608265#1" to="10377182#0"/>
    <trip id="152" depart="21752.00" from="-99899257#7" to="26172406#5"/>
    <trip id="153" depart="21753.00" from="-151245962#1" to="28841213"/>
    <trip id="154" depart="21754.00" from="151503339#0" to="31015237#0"/>
    <trip id="155" depart="21755.00" from="24658267#1" to="28840734#0"/>
    <trip id="156" depart="21756.00" from="-151505130#1" to="-28938716"/>
    <trip id="157" depart="21757.00" from="-151503339#8" to="-54444463#4"/>
    <trip id="158" depart="21758.00" from="151505130#2" to="-28888628#3"/>
    <trip id="159" depart="21759.00" from="23612284#3" to="26267402#2"/>
    <trip id="160" depart="21760.00" from="291658652" to="-29168199#1"/>
    <trip id="161" depart="21761.00" from="-26606323" to="24659267#2"/>
    <trip id="162" depart="21762.00" from="-117848280" to="34919017#1"/>
    <trip id="163" depart="21763.00" from="150015922#0" to="26172406#1"/>
    <trip id="164" depart="21764.00" from="26152283#1" to="48181057"/>
    <trip id="165" depart="21765.00" from="28888602#1" to="28840834"/>
    <trip id="166" depart="21766.00" from="-151247593#1" to="48057939#3"/>
    <trip id="167" depart="21767.00" from="26309129" to="-302774796#0"/>
    <trip id="168" depart="21768.00" from="-26267121#3" to="28839869"/>
    <trip id="169" depart="21769.00" from="-151569675#0" to="37795703#0"/>
    <trip id="170" depart="21770.00" from="202653129" to="-151505130#3"/>
    <trip id="171" depart="21771.00" from="23631915#1" to="25786493#1"/>
    <trip id="172" depart="21772.00" from="-142929915" to="151245981#1"/>
    <trip id="173" depart="21773.00" from="4862758" to="-150015922#3"/>
    <trip id="174" depart="21774.00" from="28840834" to="-44529417#0"/>
    <trip id="175" depart="21775.00" from="24659265" to="-151246958"/>
    <trip id="176" depart="21776.00" from="10377109#2" to="26266495#2"/>
    <trip id="177" depart="21777.00" from="28888590#0" to="26607352#3"/>
    <trip id="178" depart="21778.00" from="29121907#4" to="-26267402#1"/>
    <trip id="179" depart="21779.00" from="31255851#0" to="37863827"/>
    <trip id="180" depart="21780.00" from="99899257#7" to="-84488623#6"/>
    <trip id="181" depart="21781.00" from="36770354" to="80248200#0"/>
    <trip id="182" depart="21782.00" from="-151245963#1" to="-10377182#0"/>
    <trip id="183" depart="21783.00" from="115885588#3" to="-117848283"/>
    <trip id="184" depart="21784.00" from="-31255852#2" to="28967588#2"/>
    <trip id="185" depart="21785.00" from="150015929#0" to="-29168199#1"/>
    <trip id="186" depart="21786.00" from="-32611964#0" to="-151245981#0"/>
    <trip id="187" depart="21787.00" from="-39827677#6" to="48181294"/>
    <trip id="188" depart="21788.00" from="151608265#0" to="-29122081"/>
    <trip id="189" depart="21789.00" from="151245974#0" to="-37907290"/>
    <trip id="190" depart="21790.00" from="-48057939#2" to="71244298#1"/>
    <trip id="191" depart="21791.00" from="23631910#1" to="-44529418#1"/>
    <trip id="192" depart="21792.00" from="28889328#1" to="9617717"/>
    <trip id="193" depart="21793.00" from="-23612321#4" to="26275715#0"/>
    <trip id="194" depart="21794.00" from="23631852#0" to="-81960028#0"/>
    <trip id="195" depart="21795.00" from="23631915#2" to="-26607352#1"/>
    <trip id="196" depart="21796.00" from="31015608" to="-72524601"/>
    <trip id="197" depart="21797.00" from="56131630#2" to="35408616#0"/>
    <trip id="198" depart="21798.00" from="26308539#3" to="-24641237#1"/>
    <trip id="199" depart="21799.00" from="26275715#2" to="151505130#3"/>
    <trip id="200" depart="21800.00" from="183824580#0" to="54444463#1"/>
    <trip id="201" depart="21801.00" from="28938716" to="-115885585"/>
    <trip id="202" depart="21802.00" from="-80248203#1" to="26308655#1"/>
    <trip id="203" depart="21803.00" from="28938658" to="-98041787#2"/>
    <trip id="204" depart="21804.00" from="37763706#0" to="-150013426"/>
    <trip id="205" depart="21805.00" from="24659267#1" to="150013420#1"/>
    <trip id="206" depart="21806.00" from="-37795337#3" to="-37880231"/>
    <trip id="207" depart="21807.00" from="24658277" to="153403703"/>
    <trip id="208" depart="21808.00" from="23612500#1" to="-26279974#0"/>
    <trip id="209" depart="21809.00" from="-151569688" to="23612284#4"/>
    <trip id="210" depart="21810.00" from="39827677#3" to="67150810#1"/>
    <trip id="211" depart="21811.00" from="-23612406#1" to="-142169748"/>
    <trip id="212" depart="21812.00" from="-117848280" to="28839869"/>
    <trip id="213" depart="21813.00" from="150015936#0" to="-28938716"/>
    <trip id="214" depart="21814.00" from="-28840834" to="26308809#0"/>
    <trip id="215" depart="21815.00" from="56066027#0" to="-99899257#7"/>
    <trip id="216" depart="21816.00" from="-150011524#2" to="-29118284"/>
    <trip id="217" depart="21817.00" from="84488623#2" to="-30701576#0"/>
    <trip id="218" depart="21818.00" from="145245294#5" to="-117848280"/>
    <trip id="219" depart="21819.00" from="-151505129" to="-26266562"/>
    <trip id="220" depart="21820.00" from="37763704" to="-26275698#3"/>
    <trip id="221" depart="21821.00" from="133146445#1" to="-29122028#1"/>
    <trip id="222" depart="21822.00" from="-128132988" to="-23631852#3"/>
    <trip id="223" depart="21823.00" from="-23631852#3" to="28840703#0"/>
    <trip id="224" depart="21824.00" from="54444463#5" to="-37795337#2"/>
    <trip id="225" depart="21825.00" from="-151245977#0" to="-29122095#7"/>
    <trip id="226" depart="21826.00" from="-151608269#2" to="-151608265#0"/>
    <trip id="227" depart="21827.00" from="-23612321#4" to="-151247593#4"/>
    <trip id="228" depart="21828.00" from="-183824580#1" to="24914323#0"/>
    <trip id="229" depart="21829.00" from="-52873113#0" to="-145245294#3"/>
    <trip id="230" depart="21830.00" from="-28889348#2" to="-35408615#2"/>
    <trip id="231" depart="21831.00" from="39895654" to="34919017#1"/>
    <trip id="232" depart="21832.00" from="-28939061" to="26309450#1"/>
    <trip id="233" depart="21833.00" from="-99899257#2" to="23632454#3"/>
    <trip id="234" depart="21834.00" from="72524600#2" to="28839269#0"/>
    <trip id="235" depart="21835.00" from="29122062" to="24659267#2"/>
    <trip id="236" depart="21836.00" from="39895650" to="151245981#2"/>
    <trip id="237" depart="21837.00" from="-98640410#1" to="26606625"/>
    <trip id="238" depart="21838.00" from="29118275" to="139436880"/>
    <trip id="239" depart="21839.00" from="151245979" to="-28938716"/>
    <trip id="240" depart="21840.00" from="-48057939#2" to="31015237#0"/>
    <trip id="241" depart="21841.00" from="49144169" to="-23612494#1"/>
    <trip id="242" depart="21842.00" from="-24641237#0" to="-285259349#2"/>
    <trip id="243" depart="21843.00" from="23631852#0" to="-151245973"/>
    <trip id="244" depart="21844.00" from="142930506" to="35149944#1"/>
    <trip id="245" depart="21845.00" from="-28841138#2" to="151245981#6"/>
    <trip id="246" depart="21846.00" from="-151245981#1" to="98636342#2"/>
    <trip id="247" depart="21847.00" from="-29122062" to="151569676"/>
    <trip id="248" depart="21848.00" from="26267403#0" to="26275698#1"/>
    <trip id="249" depart="21849.00" from="24622441" to="-28841082"/>
    <trip id="250" depart="21850.00" from="-29168211#0" to="-56079080#3"/>
    <trip id="251" depart="21851.00" from="-71244298#0" to="35408613"/>
    <trip id="252" depart="21852.00" from="23631852#0" to="28888628#4"/>
    <trip id="253" depart="21853.00" from="35408609" to="-99899257#3"/>
    <trip id="254" depart="21854.00" from="-23611637" to="67150810#1"/>
    <trip id="255" depart="21855.00" from="26308539#1" to="-145245294#6"/>
    <trip id="256" depart="21856.00" from="48057939#2" to="-145245294#0"/>
    <trip id="257" depart="21857.00" from="-28895752#0" to="142169748"/>
    <trip id="258" depart="21858.00" from="-23632454#8" to="-28888628#6"/>
    <trip id="259" depart="21859.00" from="150013429#2" to="23612970#0"/>
    <trip id="260" depart="21860.00" from="-26275698#4" to="-26308655#0"/>
    <trip id="261" depart="21861.00" from="24658813" to="28839869"/>
    <trip id="262" depart="21862.00" from="-28839833#1" to="-48057968"/>
    <trip id="263" depart="21863.00" from="24622544" to="-24659267#0"/>
    <trip id="264" depart="21864.00" from="31255892#2" to="-26606781#3"/>
    <trip id="265" depart="21865.00" from="23631852#0" to="-26606427#1"/>
    <trip id="266" depart="21866.00" from="-151569675#0" to="180141095#5"/>
    <trip id="267" depart="21867.00" from="-5182184#1" to="-80249226#1"/>
    <trip id="268" depart="21868.00" from="-30636980" to="-48057939#1"/>
    <trip id="269" depart="21869.00" from="23612494#2" to="26856427#4"/>
    <trip id="270" depart="21870.00" from="26275715#3" to="-24658810"/>
    <trip id="271" depart="21871.00" from="-29121825#1" to="23612406#0"/>
    <trip id="272" depart="21872.00" from="-26308655#1" to="-117864241#0"/>
    <trip id="273" depart="21873.00" from="-151245958#1" to="-25785639"/>
    <trip id="274" depart="21874.00" from="-26856427#2" to="-30758174#1"/>
    <trip id="275" depart="21875.00" from="180141095#5" to="-28938448#1"/>
    <trip id="276" depart="21876.00" from="26266386#1" to="151503340#1"/>
    <trip id="277" depart="21877.00" from="32613848#0" to="-26607190#2"/>
    <trip id="278" depart="21878.00" from="180141095#5" to="-34919017#0"/>
    <trip id="279" depart="21879.00" from="249700302#4" to="38007899#0"/>
    <trip id="280" depart="21880.00" from="-151247593#4" to="-26465812#9"/>
    <trip id="281" depart="21881.00" from="72524600#2" to="23630910"/>
    <trip id="282" depart="21882.00" from="23612970#0" to="26606427#2"/>
    <trip id="283" depart="21883.00" from="24622356#0" to="115885587#2"/>
    <trip id="284" depart="21884.00" from="-183824580#1" to="26152290"/>
    <trip id="285" depart="21885.00" from="24658810" to="37863824#1"/>
    <trip id="286" depart="21886.00" from="-28839688" to="-135551080"/>
    <trip id="287" depart="21887.00" from="31928172" to="151608265#0"/>
    <trip id="288" depart="21888.00" from="80248200#0" to="24641333"/>
    <trip id="289" depart="21889.00" from="-150015922#4" to="151569689#0"/>
    <trip id="290" depart="21890.00" from="10377180#0" to="28938597#3"/>
    <trip id="291" depart="21891.00" from="-23612824#3" to="-151505130#2"/>
    <trip id="292" depart="21892.00" from="23612500#0" to="23612494#1"/>
    <trip id="293" depart="21893.00" from="-24658277" to="-28889348#2"/>
    <trip id="294" depart="21894.00" from="-145245294#7" to="23612824#2"/>
    <trip id="295" depart="21895.00" from="-151503337#0" to="151245981#6"/>
    <trip id="296" depart="21896.00" from="-151503320#3" to="-26266674#0"/>
    <trip id="297" depart="21897.00" from="183824580#0" to="128037604#0"/>
    <trip id="298" depart="21898.00" from="150013419" to="-26606781#3"/>
    <trip id="299" depart="21899.00" from="-23631852#3" to="-117848283"/>
    <trip id="300" depart="21900.00" from="28938448#1" to="151245981#5"/>
    <trip id="301" depart="21901.00" from="37880231" to="-23612824#3"/>
    <trip id="302" depart="21902.00" from="-145245294#3" to="-151245981#4"/>
    <trip id="303" depart="21903.00" from="-29168199#1" to="-145245294#6"/>
    <trip id="304" depart="21904.00" from="98041790" to="-151246959#1"/>
    <trip id="305" depart="21905.00" from="-28938502#3" to="80248203#0"/>
    <trip id="306" depart="21906.00" from="-150015945#3" to="-28895475#0"/>
    <trip id="307" depart="21907.00" from="-26308731#1" to="301750524#0"/>
    <trip id="308" depart="21908.00" from="151245979" to="26275715#1"/>
    <trip id="309" depart="21909.00" from="23612494#1" to="26266495#1"/>
    <trip id="310" depart="21910.00" from="-28841070" to="24641237#2"/>
    <trip id="311" depart="21911.00" from="28888560#1" to="-72524603"/>
    <trip id="312" depart="21912.00" from="28840734#2" to="-80249228#1"/>
    <trip id="313" depart="21913.00" from="80249229#0" to="-29117658#1"/>
    <trip id="314" depart="21914.00" from="-151505130#2" to="-30199159#1"/>
    <trip id="315" depart="21915.00" from="-28888559#0" to="151245977#0"/>
    <trip id="316" depart="21916.00" from="-26267402#2" to="-28889346#3"/>
    <trip id="317" depart="21917.00" from="-29121854#1" to="25785561#0"/>
    <trip id="318" depart="21918.00" from="151608269#0" to="-100466670#2"/>
    <trip id="319" depart="21919.00" from="-28938597#3" to="-115885588#2"/>
    <trip id="320" depart="21920.00" from="39742133#0" to="24659224#2"/>
    <trip id="321" depart="21921.00" from="-117864241#3" to="26606758#0"/>
    <trip id="322" depart="21922.00" from="-23612824#4" to="-134706509"/>
    <trip id="323" depart="21923.00" from="29168131#0" to="150015929#0"/>
    <trip id="324" depart="21924.00" from="80278003" to="-54444482#3"/>
    <trip id="325" depart="21925.00" from="-98334308" to="80278003"/>
    <trip id="326" depart="21926.00" from="-37880405" to="-29168199#1"/>
    <trip id="327" depart="21927.00" from="45966168#1" to="35149876"/>
    <trip id="328" depart="21928.00" from="-23612406#1" to="150015927#0"/>
    <trip id="329" depart="21929.00" from="151608261" to="-80249228#1"/>
    <trip id="330" depart="21930.00" from="29122028#0" to="-28938305#2"/>
    <trip id="331" depart="21931.00" from="-23612824#0" to="49144169"/>
    <trip id="332" depart="21932.00" from="150011513#0" to="-47126069#1"/>
    <trip id="333" depart="21933.00" from="-41453273" to="151246959#0"/>
    <trip id="334" depart="21934.00" from="-26607352#2" to="80248202#0"/>
    <trip id="335" depart="21935.00" from="48181294" to="28840824#1"/>
    <trip id="336" depart="21936.00" from="153403703" to="151505130#2"/>
    <trip id="337" depart="21937.00" from="80249228#0" to="-150015922#4"/>
    <trip id="338" depart="21938.00" from="202653126" to="-26607352#4"/>
    <trip id="339" depart="21939.00" from="117848284#0" to="-26266495#2"/>
    <trip id="340" depart="21940.00" from="-26266674#0" to="26607190#0"/>
    <trip id="341" depart="21941.00" from="151503339#0" to="29168209#2"/>
    <trip id="342" depart="21942.00" from="-169343141#2" to="23612333#0"/>
    <trip id="343" depart="21943.00" from="84488623#3" to="-151569687#1"/>
    <trip id="344" depart="21944.00" from="-34919017#1" to="76695059#0"/>
    <trip id="345" depart="21945.00" from="99899257#6" to="81965124#0"/>
    <trip id="346" depart="21946.00" from="54444482#0" to="-28938597#3"/>
    <trip id="347" depart="21947.00" from="-99899257#6" to="26279637#0"/>
    <trip id="348" depart="21948.00" from="-28841070" to="32667963#0"/>
    <trip id="349" depart="21949.00" from="-37880405" to="73356200#4"/>
    <trip id="350" depart="21950.00" from="-72524600#2" to="-24659229#0"/>
    <trip id="351" depart="21951.00" from="-39827677#3" to="26308539#3"/>
    <trip id="352" depart="21952.00" from="26308731#0" to="-72078635#2"/>
    <trip id="353" depart="21953.00" from="-99899257#5" to="56079079#0"/>
    <trip id="354" depart="21954.00" from="-28889341#0" to="-26465812#2"/>
    <trip id="355" depart="21955.00" from="28938597#3" to="-44529418#1"/>
    <trip id="356" depart="21956.00" from="23631874#3" to="-23612160#5"/>
    <trip id="357" depart="21957.00" from="31015237#0" to="26267402#0"/>
    <trip id="358" depart="21958.00" from="24658810" to="177761753"/>
    <trip id="359" depart="21959.00" from="-26308539#3" to="31255892#0"/>
    <trip id="360" depart="21960.00" from="52873146" to="-23632454#7"/>
    <trip id="361" depart="21961.00" from="117864241#4" to="-28889346#2"/>
    <trip id="362" depart="21962.00" from="35408614" to="-115885585"/>
    <trip id="363" depart="21963.00" from="117864241#1" to="32613850"/>
    <trip id="364" depart="21964.00" from="-98613782" to="23631915#2"/>
    <trip id="365" depart="21965.00" from="26152283#1" to="-24659267#1"/>
    <trip id="366" depart="21966.00" from="-28888628#5" to="-29121743"/>
    <trip id="367" depart="21967.00" from="-26309450#2" to="117848287#2"/>
    <trip id="368" depart="21968.00" from="-35408614" to="-117864241#4"/>
    <trip id="369" depart="21969.00" from="150015923" to="151245977#3"/>
    <trip id="370" depart="21970.00" from="151569673#0" to="48057939#1"/>
    <trip id="371" depart="21971.00" from="-100466670#2" to="-151503339#8"/>
    <trip id="372" depart="21972.00" from="99899257#5" to="145245294#0"/>
    <trip id="373" depart="21973.00" from="26308802#2" to="28888602#0"/>
    <trip id="374" depart="21974.00" from="34919017#0" to="150015919#0"/>
    <trip id="375" depart="21975.00" from="-28967588#2" to="142169748"/>
    <trip id="376" depart="21976.00" from="-115885587#2" to="23632454#5"/>
    <trip id="377" depart="21977.00" from="26267403#0" to="-26172406#0"/>
    <trip id="378" depart="21978.00" from="-28895752#1" to="151245976#1"/>
    <trip id="379" depart="21979.00" from="-28889402#0" to="-26266386#1"/>
    <trip id="380" depart="21980.00" from="150013421" to="26152283#0"/>
    <trip id="381" depart="21981.00" from="117848281" to="24658326#0"/>
    <trip id="382" depart="21982.00" from="28967588#0" to="-151505128#2"/>
    <trip id="383" depart="21983.00" from="-56066026#1" to="49144169"/>
    <trip id="384" depart="21984.00" from="-117864241#0" to="-28938830#1"/>
    <trip id="385" depart="21985.00" from="-151245959" to="-100466670#2"/>
    <trip id="386" depart="21986.00" from="-28938597#2" to="-26275698#1"/>
    <trip id="387" depart="21987.00" from="-26607352#4" to="-35408617"/>
    <trip id="388" depart="21988.00" from="-26266505" to="72078635#1"/>
    <trip id="389" depart="21989.00" from="-150011513#3" to="28938597#4"/>
    <trip id="390" depart="21990.00" from="24659265" to="291658652"/>
    <trip id="391" depart="21991.00" from="-39827677#4" to="-30636979"/>
    <trip id="392" depart="21992.00" from="-71244298#4" to="-151245977#2"/>
    <trip id="393" depart="21993.00" from="37863827" to="-26266495#2"/>
    <trip id="394" depart="21994.00" from="-26606938#1" to="28841138#0"/>
    <trip id="395" depart="21995.00" from="-80248200#1" to="28889425#0"/>
    <trip id="396" depart="21996.00" from="-35149641#1" to="-29168209#2"/>
    <trip id="397" depart="21997.00" from="150013426" to="151503337#1"/>
    <trip id="398" depart="21998.00" from="151608263" to="-23632454#3"/>
    <trip id="399" depart="21999.00" from="-26266386#1" to="151245959"/>
    <trip id="400" depart="22000.00" from="-35149876" to="56186612#3"/>
    <trip id="401" depart="22001.00" from="28839833#0" to="28895475#1"/>
    <trip id="402" depart="22002.00" from="-34636935#1" to="30636979"/>
    <trip id="403" depart="22003.00" from="-24659333#7" to="-151245959"/>
    <trip id="404" depart="22004.00" from="-71244298#4" to="-28889350#1"/>