<?xml version="1.0" encoding="UTF-8"?>

<!-- generated on Mi 31 Jul 09:17:09 2019 by Eclipse SUMO netedit Version 1.2.0
<configuration xmlns:xsi="http://www.w3.org/2001/XMLSchema-instance" xsi:noNamespaceSchemaLocation="http://sumo.dlr.de/xsd/netconvertConfiguration.xsd">

    <input>
        <sumo-net-file value="/Users/Franzi/Desktop/Ehrenfeld.net.xml"/>
    </input>

    <output>
        <output-file value="/Users/Franzi/Desktop/Ehrenfeld.net.xml"/>
    </output>

    <processing>
        <geometry.max-grade.fix value="false"/>
        <offset.disable-normalization value="true"/>
        <lefthand value="false"/>
    </processing>

    <junctions>
        <no-turnarounds value="true"/>
        <junctions.corner-detail value="5"/>
        <junctions.limit-turn-speed value="5.5"/>
        <rectangular-lane-cut value="false"/>
    </junctions>

    <pedestrian>
        <walkingareas value="false"/>
    </pedestrian>

</configuration>
-->

<net version="1.1" junctionCornerDetail="5" limitTurnSpeed="5.50" xmlns:xsi="http://www.w3.org/2001/XMLSchema-instance" xsi:noNamespaceSchemaLocation="http://sumo.dlr.de/xsd/net_file.xsd">

    <location netOffset="-351654.62,-5644829.56" convBoundary="0.00,334.21,3632.60,3099.82" origBoundary="6.887445,50.936698,6.949342,50.963848" projParameter="+proj=utm +zone=32 +ellps=WGS84 +datum=WGS84 +units=m +no_defs"/>

    <type id="highway.bridleway" priority="1" numLanes="1" speed="2.78" allow="pedestrian" oneway="1" width="2.00"/>
    <type id="highway.bus_guideway" priority="1" numLanes="1" speed="27.78" allow="bus" oneway="1"/>
    <type id="highway.cycleway" priority="1" numLanes="1" speed="8.33" allow="bicycle" oneway="0" width="1.00"/>
    <type id="highway.footway" priority="1" numLanes="1" speed="2.78" allow="pedestrian" oneway="1" width="2.00"/>
    <type id="highway.ford" priority="1" numLanes="1" speed="2.78" allow="army" oneway="0"/>
    <type id="highway.living_street" priority="2" numLanes="1" speed="2.78" disallow="tram rail_urban rail rail_electric ship" oneway="0"/>
    <type id="highway.motorway" priority="14" numLanes="2" speed="39.44" allow="private emergency authority army vip passenger hov taxi bus coach delivery truck trailer motorcycle evehicle custom1 custom2" oneway="1"/>
    <type id="highway.motorway_link" priority="9" numLanes="1" speed="22.22" allow="private emergency authority army vip passenger hov taxi bus coach delivery truck trailer motorcycle evehicle custom1 custom2" oneway="1"/>
    <type id="highway.path" priority="1" numLanes="1" speed="2.78" allow="bicycle pedestrian" oneway="1" width="2.00"/>
    <type id="highway.pedestrian" priority="1" numLanes="1" speed="2.78" allow="pedestrian" oneway="1" width="2.00"/>
    <type id="highway.primary" priority="12" numLanes="2" speed="27.78" disallow="tram rail_urban rail rail_electric ship" oneway="0"/>
    <type id="highway.primary_link" priority="7" numLanes="1" speed="22.22" disallow="tram rail_urban rail rail_electric ship" oneway="0"/>
    <type id="highway.raceway" priority="15" numLanes="2" speed="83.33" allow="vip" oneway="0"/>
    <type id="highway.residential" priority="3" numLanes="1" speed="13.89" disallow="tram rail_urban rail rail_electric ship" oneway="0"/>
    <type id="highway.secondary" priority="11" numLanes="2" speed="27.78" disallow="tram rail_urban rail rail_electric ship" oneway="0"/>
    <type id="highway.secondary_link" priority="6" numLanes="1" speed="22.22" disallow="tram rail_urban rail rail_electric ship" oneway="0"/>
    <type id="highway.service" priority="1" numLanes="1" speed="5.56" allow="delivery bicycle pedestrian" oneway="0"/>
    <type id="highway.service|railway.light_rail" priority="19" numLanes="1" speed="27.78" allow="delivery rail_urban bicycle pedestrian" oneway="0"/>
    <type id="highway.stairs" priority="1" numLanes="1" speed="1.39" allow="pedestrian" oneway="1" width="2.00"/>
    <type id="highway.step" priority="1" numLanes="1" speed="1.39" allow="pedestrian" oneway="1" width="2.00"/>
    <type id="highway.steps" priority="1" numLanes="1" speed="1.39" allow="pedestrian" oneway="1" width="2.00"/>
    <type id="highway.tertiary" priority="10" numLanes="1" speed="22.22" disallow="tram rail_urban rail rail_electric ship" oneway="0"/>
    <type id="highway.tertiary_link" priority="5" numLanes="1" speed="22.22" disallow="tram rail_urban rail rail_electric ship" oneway="0"/>
    <type id="highway.track" priority="1" numLanes="1" speed="5.56" disallow="tram rail_urban rail rail_electric ship" oneway="0"/>
    <type id="highway.trunk" priority="13" numLanes="2" speed="27.78" disallow="tram rail_urban rail rail_electric bicycle pedestrian ship" oneway="0"/>
    <type id="highway.trunk_link" priority="8" numLanes="1" speed="22.22" disallow="tram rail_urban rail rail_electric bicycle pedestrian ship" oneway="0"/>
    <type id="highway.unclassified" priority="4" numLanes="1" speed="13.89" disallow="tram rail_urban rail rail_electric ship" oneway="0"/>
    <type id="highway.unsurfaced" priority="1" numLanes="1" speed="8.33" disallow="tram rail_urban rail rail_electric ship" oneway="0"/>
    <type id="railway.light_rail" priority="19" numLanes="1" speed="27.78" allow="rail_urban" oneway="1"/>
    <type id="railway.preserved" priority="16" numLanes="1" speed="27.78" allow="rail" oneway="1"/>
    <type id="railway.rail" priority="20" numLanes="1" speed="83.33" allow="rail rail_electric" oneway="1"/>
    <type id="railway.subway" priority="18" numLanes="1" speed="27.78" allow="rail_urban" oneway="1"/>
    <type id="railway.tram" priority="17" numLanes="1" speed="13.89" allow="tram" oneway="1"/>

    <edge id=":1008543944_0" function="internal">
        <lane id=":1008543944_0_0" index="0" disallow="tram rail_urban rail rail_electric ship" speed="13.89" length="0.28" shape="2805.97,754.96 2805.83,754.72"/>
    </edge>
    <edge id=":1008543944_1" function="internal">
        <lane id=":1008543944_1_0" index="0" disallow="tram rail_urban rail rail_electric ship" speed="13.89" length="0.15" shape="2808.63,753.18 2808.70,753.30"/>
    </edge>
    <edge id=":1142937940_0" function="internal">
        <lane id=":1142937940_0_0" index="0" disallow="tram rail_urban rail rail_electric ship" speed="27.78" length="0.30" shape="2093.39,2029.84 2093.14,2030.01"/>
    </edge>
    <edge id=":1142937940_1" function="internal">
        <lane id=":1142937940_1_0" index="0" disallow="tram rail_urban rail rail_electric ship" speed="27.78" length="0.30" shape="2091.35,2027.35 2091.60,2027.19"/>
    </edge>
    <edge id=":1142938006_0" function="internal">
        <lane id=":1142938006_0_0" index="0" disallow="tram rail_urban rail rail_electric ship" speed="8.33" length="0.30" shape="2065.02,2019.19 2065.18,2019.43"/>
    </edge>
    <edge id=":1142952193_0" function="internal">
        <lane id=":1142952193_0_0" index="0" disallow="tram rail_urban rail rail_electric ship" speed="13.89" length="0.22" shape="2038.46,1866.71 2038.33,1866.52"/>
    </edge>
    <edge id=":1142952193_1" function="internal">
        <lane id=":1142952193_1_0" index="0" disallow="tram rail_urban rail rail_electric ship" speed="13.89" length="0.31" shape="2040.96,1864.70 2041.13,1864.95"/>
    </edge>
    <edge id=":1157690138_0" function="internal">
        <lane id=":1157690138_0_0" index="0" disallow="tram rail_urban rail rail_electric ship" speed="22.22" length="0.11" shape="1377.70,1131.42 1377.70,1131.31"/>
    </edge>
    <edge id=":1157690138_1" function="internal">
        <lane id=":1157690138_1_0" index="0" disallow="tram rail_urban rail rail_electric ship" speed="22.22" length="0.32" shape="1380.89,1131.06 1380.90,1131.38"/>
    </edge>
    <edge id=":1158757370_0" function="internal">
        <lane id=":1158757370_0_0" index="0" disallow="tram rail_urban rail rail_electric ship" speed="22.22" length="0.30" shape="1381.23,1163.84 1381.23,1164.14"/>
    </edge>
    <edge id=":1158757370_1" function="internal">
        <lane id=":1158757370_1_0" index="0" disallow="tram rail_urban rail rail_electric ship" speed="22.22" length="0.19" shape="1378.03,1164.05 1378.03,1163.85"/>
    </edge>
    <edge id=":1168765161_0" function="internal">
        <lane id=":1168765161_0_0" index="0" disallow="tram rail_urban rail rail_electric ship" speed="22.22" length="0.31" shape="1434.00,692.35 1433.90,692.68"/>
        <lane id=":1168765161_0_1" index="1" disallow="tram rail_urban rail rail_electric ship" speed="22.22" length="0.31" shape="1430.92,691.50 1430.84,691.77"/>
    </edge>
    <edge id=":1168765161_2" function="internal">
        <lane id=":1168765161_2_0" index="0" disallow="tram rail_urban rail rail_electric ship" speed="22.22" length="0.22" shape="1427.77,690.86 1427.83,690.64"/>
    </edge>
    <edge id=":1168765174_0" function="internal">
        <lane id=":1168765174_0_0" index="0" disallow="tram rail_urban rail rail_electric ship" speed="22.22" length="8.02" shape="1406.23,778.35 1404.51,786.18"/>
    </edge>
    <edge id=":1168765174_1" function="internal">
        <lane id=":1168765174_1_0" index="0" disallow="tram rail_urban rail rail_electric ship" speed="22.22" length="8.38" shape="1401.39,785.48 1401.44,782.98 1400.70,781.24 1399.95,779.51 1399.98,777.00"/>
        <lane id=":1168765174_1_1" index="1" disallow="tram rail_urban rail rail_electric ship" speed="22.22" length="8.38" shape="1401.39,785.48 1403.10,777.68"/>
    </edge>
    <edge id=":1168765185_0" function="internal">
        <lane id=":1168765185_0_0" index="0" disallow="tram rail_urban rail rail_electric ship" speed="22.22" length="0.36" shape="1411.78,756.79 1411.68,757.13"/>
    </edge>
    <edge id=":1168765185_1" function="internal">
        <lane id=":1168765185_1_0" index="0" disallow="tram rail_urban rail rail_electric ship" speed="22.22" length="0.17" shape="1405.62,755.07 1405.65,754.97"/>
        <lane id=":1168765185_1_1" index="1" disallow="tram rail_urban rail rail_electric ship" speed="22.22" length="0.17" shape="1408.65,756.10 1408.72,755.88"/>
    </edge>
    <edge id=":1168775920_0" function="internal">
        <lane id=":1168775920_0_0" index="0" disallow="tram rail_urban rail rail_electric ship" speed="22.22" length="0.19" shape="1409.29,764.14 1409.28,764.19 1409.27,764.23 1409.26,764.26 1409.25,764.32"/>
    </edge>
    <edge id=":1168775920_1" function="internal">
        <lane id=":1168775920_1_0" index="0" disallow="tram rail_urban rail rail_electric ship" speed="22.22" length="0.74" shape="1402.99,762.97 1403.05,762.70 1403.09,762.52 1403.15,762.34 1403.23,762.08"/>
        <lane id=":1168775920_1_1" index="1" disallow="tram rail_urban rail rail_electric ship" speed="22.22" length="0.74" shape="1406.12,763.65 1406.15,763.48 1406.18,763.37 1406.21,763.27 1406.26,763.11"/>
    </edge>
    <edge id=":1168787341_0" function="internal">
        <lane id=":1168787341_0_0" index="0" disallow="tram rail_urban rail rail_electric ship" speed="8.33" length="2.91" shape="2462.75,800.10 2461.36,797.55"/>
    </edge>
    <edge id=":1168787341_1" function="internal">
        <lane id=":1168787341_1_0" index="0" disallow="tram rail_urban rail rail_electric ship" speed="3.65" length="2.34" shape="2462.75,800.10 2462.90,798.67 2463.42,797.94"/>
    </edge>
    <edge id=":1168787341_4" function="internal">
        <lane id=":1168787341_4_0" index="0" disallow="tram rail_urban rail rail_electric ship" speed="3.65" length="2.34" shape="2463.42,797.94 2464.32,797.93 2465.58,798.62"/>
    </edge>
    <edge id=":1168787341_2" function="internal">
        <lane id=":1168787341_2_0" index="0" disallow="tram rail_urban rail rail_electric ship" speed="8.33" length="3.00" shape="2464.15,795.98 2465.58,798.62"/>
    </edge>
    <edge id=":1168787341_3" function="internal">
        <lane id=":1168787341_3_0" index="0" disallow="tram rail_urban rail rail_electric ship" speed="3.65" length="2.34" shape="2464.15,795.98 2464.04,797.42 2463.54,798.16"/>
    </edge>
    <edge id=":1168787341_5" function="internal">
        <lane id=":1168787341_5_0" index="0" disallow="tram rail_urban rail rail_electric ship" speed="3.65" length="2.34" shape="2463.54,798.16 2462.65,798.20 2461.36,797.55"/>
    </edge>
    <edge id=":1168787344_0" function="internal">
        <lane id=":1168787344_0_0" index="0" disallow="tram rail_urban rail rail_electric ship" speed="8.33" length="3.01" shape="2435.27,751.13 2433.81,748.50"/>
    </edge>
    <edge id=":1168787344_1" function="internal">
        <lane id=":1168787344_1_0" index="0" disallow="tram rail_urban rail rail_electric ship" speed="3.65" length="4.67" shape="2435.27,751.13 2435.38,749.69 2435.88,748.95 2436.77,748.91 2438.06,749.56"/>
    </edge>
    <edge id=":1168787344_2" function="internal">
        <lane id=":1168787344_2_0" index="0" disallow="tram rail_urban rail rail_electric ship" speed="8.33" length="2.98" shape="2436.61,746.96 2438.06,749.56"/>
    </edge>
    <edge id=":1168787344_3" function="internal">
        <lane id=":1168787344_3_0" index="0" disallow="tram rail_urban rail rail_electric ship" speed="3.65" length="4.67" shape="2436.61,746.96 2436.49,748.39 2435.98,749.13 2435.09,749.16 2433.81,748.50"/>
    </edge>
    <edge id=":1195462430_0" function="internal">
        <lane id=":1195462430_0_0" index="0" disallow="tram rail_urban rail rail_electric ship" speed="27.78" length="0.48" shape="2000.98,1528.34 2000.80,1528.17 2000.68,1528.04 2000.57,1527.90 2000.42,1527.70"/>
        <lane id=":1195462430_0_1" index="1" disallow="tram rail_urban rail rail_electric ship" speed="27.78" length="0.48" shape="2003.06,1525.91 2003.04,1525.88 2003.03,1525.86 2003.03,1525.84 2003.01,1525.82"/>
    </edge>
    <edge id=":1195462432_0" function="internal">
        <lane id=":1195462432_0_0" index="0" disallow="tram rail_urban rail rail_electric ship" speed="27.78" length="0.76" shape="2016.51,1503.55 2016.70,1503.82 2016.82,1504.02 2016.92,1504.23 2017.05,1504.54"/>
        <lane id=":1195462432_0_1" index="1" disallow="tram rail_urban rail rail_electric ship" speed="27.78" length="0.76" shape="2013.89,1505.39 2013.96,1505.48 2014.00,1505.55 2014.03,1505.62 2014.07,1505.72"/>
    </edge>
    <edge id=":1195462437_0" function="internal">
        <lane id=":1195462437_0_0" index="0" disallow="tram rail_urban rail rail_electric ship" speed="27.78" length="0.10" shape="2102.39,1636.62 2102.44,1636.69"/>
        <lane id=":1195462437_0_1" index="1" disallow="tram rail_urban rail rail_electric ship" speed="27.78" length="0.10" shape="2099.73,1638.38 2099.68,1638.31"/>
    </edge>
    <edge id=":1234014331_0" function="internal">
        <lane id=":1234014331_0_0" index="0" disallow="tram rail_urban rail rail_electric ship" speed="27.78" length="0.30" shape="2208.98,1833.40 2208.82,1833.15"/>
        <lane id=":1234014331_0_1" index="1" disallow="tram rail_urban rail rail_electric ship" speed="27.78" length="0.30" shape="2211.64,1831.63 2211.48,1831.38"/>
    </edge>
    <edge id=":1252196379_0" function="internal">
        <lane id=":1252196379_0_0" index="0" disallow="tram rail_urban rail rail_electric ship" speed="22.22" length="0.30" shape="1374.99,1097.30 1374.96,1097.00"/>
    </edge>
    <edge id=":1252196379_1" function="internal">
        <lane id=":1252196379_1_0" index="0" disallow="tram rail_urban rail rail_electric ship" speed="22.22" length="0.30" shape="1378.15,1096.74 1378.18,1097.04"/>
    </edge>
    <edge id=":1252201733_0" function="internal">
        <lane id=":1252201733_0_0" index="0" disallow="tram rail_urban rail rail_electric ship" speed="22.22" length="8.40" shape="1372.51,1066.07 1371.82,1063.66 1370.60,1062.21 1369.38,1060.77 1368.69,1058.35"/>
        <lane id=":1252201733_0_1" index="1" disallow="tram rail_urban rail rail_electric ship" speed="22.22" length="8.40" shape="1372.51,1066.07 1371.88,1058.10"/>
    </edge>
    <edge id=":1252201733_2" function="internal">
        <lane id=":1252201733_2_0" index="0" disallow="tram rail_urban rail rail_electric ship" speed="3.65" length="2.34" shape="1372.51,1066.07 1373.21,1064.81 1373.98,1064.35"/>
    </edge>
    <edge id=":1252201733_5" function="internal">
        <lane id=":1252201733_5_0" index="0" disallow="tram rail_urban rail rail_electric ship" speed="3.65" length="2.34" shape="1373.98,1064.35 1374.81,1064.69 1375.70,1065.82"/>
    </edge>
    <edge id=":1252201733_3" function="internal">
        <lane id=":1252201733_3_0" index="0" disallow="tram rail_urban rail rail_electric ship" speed="22.22" length="8.00" shape="1375.07,1057.85 1375.70,1065.82"/>
    </edge>
    <edge id=":1252201733_4" function="internal">
        <lane id=":1252201733_4_0" index="0" disallow="tram rail_urban rail rail_electric ship" speed="3.65" length="2.34" shape="1375.07,1057.85 1374.37,1059.11 1373.60,1059.57"/>
    </edge>
    <edge id=":1252201733_6" function="internal">
        <lane id=":1252201733_6_0" index="0" disallow="tram rail_urban rail rail_electric ship" speed="3.65" length="2.34" shape="1373.60,1059.57 1372.77,1059.23 1371.88,1058.10"/>
    </edge>
    <edge id=":1252222257_0" function="internal">
        <lane id=":1252222257_0_0" index="0" disallow="tram rail_urban rail rail_electric ship" speed="27.78" length="0.28" shape="1458.06,986.22 1457.77,986.26"/>
    </edge>
    <edge id=":1252222257_1" function="internal">
        <lane id=":1252222257_1_0" index="0" disallow="tram rail_urban rail rail_electric ship" speed="27.78" length="0.31" shape="1457.39,983.08 1457.70,983.04"/>
    </edge>
    <edge id=":1261046428_0" function="internal">
        <lane id=":1261046428_0_0" index="0" disallow="tram rail_urban rail rail_electric ship" speed="22.22" length="6.14" shape="3147.27,730.42 3145.46,730.40 3144.22,730.24 3143.01,729.92 3141.26,729.41"/>
    </edge>
    <edge id=":1261046428_1" function="internal">
        <lane id=":1261046428_1_0" index="0" disallow="tram rail_urban rail rail_electric ship" speed="3.65" length="2.34" shape="3147.27,730.42 3146.06,729.65 3145.64,728.85"/>
    </edge>
    <edge id=":1261046428_5" function="internal">
        <lane id=":1261046428_5_0" index="0" disallow="tram rail_urban rail rail_electric ship" speed="3.65" length="2.34" shape="3145.64,728.85 3146.03,728.05 3147.21,727.22"/>
    </edge>
    <edge id=":1261046428_2" function="internal">
        <lane id=":1261046428_2_0" index="0" disallow="tram rail_urban rail rail_electric ship" speed="22.22" length="5.22" shape="3142.11,726.32 3143.60,726.76 3144.63,727.05 3145.68,727.20 3147.21,727.22"/>
    </edge>
    <edge id=":1261046428_3" function="internal">
        <lane id=":1261046428_3_0" index="0" disallow="tram rail_urban rail rail_electric ship" speed="3.89" length="3.74" shape="3143.18,731.81 3143.48,731.07 3143.25,730.43 3142.52,729.87 3141.26,729.41"/>
    </edge>
    <edge id=":1261046428_4" function="internal">
        <lane id=":1261046428_4_0" index="0" disallow="tram rail_urban rail rail_electric ship" speed="7.30" length="6.17" shape="3143.18,731.81 3143.91,730.75 3145.04,729.22 3146.24,727.83 3147.21,727.22"/>
    </edge>
    <edge id=":1261046431_0" function="internal">
        <lane id=":1261046431_0_0" index="0" disallow="tram rail_urban rail rail_electric ship" speed="8.33" length="0.23" shape="3168.53,747.61 3168.42,747.41"/>
    </edge>
    <edge id=":1261046445_0" function="internal">
        <lane id=":1261046445_0_0" index="0" disallow="tram rail_urban rail rail_electric ship" speed="22.22" length="5.54" shape="3156.00,729.54 3154.41,729.42 3153.32,729.72 3152.22,730.13 3150.59,730.36"/>
    </edge>
    <edge id=":1261046445_1" function="internal">
        <lane id=":1261046445_1_0" index="0" disallow="tram rail_urban rail rail_electric ship" speed="4.63" length="7.85" shape="3156.00,729.54 3152.74,728.70 3151.27,727.98 3151.59,727.39 3153.71,726.92"/>
    </edge>
    <edge id=":1261046445_2" function="internal">
        <lane id=":1261046445_2_0" index="0" disallow="tram rail_urban rail rail_electric ship" speed="22.22" length="3.56" shape="3154.14,730.09 3153.09,730.23 3152.37,730.30 3151.65,730.34 3150.59,730.36"/>
    </edge>
    <edge id=":1261046445_3" function="internal">
        <lane id=":1261046445_3_0" index="0" disallow="tram rail_urban rail rail_electric ship" speed="3.65" length="2.34" shape="3154.14,730.09 3152.84,729.46 3152.34,728.72"/>
    </edge>
    <edge id=":1261046445_5" function="internal">
        <lane id=":1261046445_5_0" index="0" disallow="tram rail_urban rail rail_electric ship" speed="3.65" length="2.34" shape="3152.34,728.72 3152.62,727.87 3153.71,726.92"/>
    </edge>
    <edge id=":1261046445_4" function="internal">
        <lane id=":1261046445_4_0" index="0" disallow="tram rail_urban rail rail_electric ship" speed="22.22" length="3.19" shape="3150.53,727.16 3151.48,727.14 3152.12,727.11 3152.77,727.04 3153.71,726.92"/>
    </edge>
    <edge id=":1261046450_0" function="internal">
        <lane id=":1261046450_0_0" index="0" disallow="tram rail_urban rail rail_electric ship" speed="27.78" length="0.31" shape="3142.09,745.54 3141.84,745.73"/>
    </edge>
    <edge id=":1261046450_1" function="internal">
        <lane id=":1261046450_1_0" index="0" disallow="tram rail_urban rail rail_electric ship" speed="27.78" length="0.25" shape="3139.92,743.17 3140.11,743.02"/>
    </edge>
    <edge id=":1261046451_0" function="internal">
        <lane id=":1261046451_0_0" index="0" disallow="tram rail_urban rail rail_electric ship" speed="27.78" length="3.75" shape="3166.17,727.41 3163.20,729.70"/>
    </edge>
    <edge id=":1261046451_1" function="internal">
        <lane id=":1261046451_1_0" index="0" disallow="tram rail_urban rail rail_electric ship" speed="13.66" length="4.98" shape="3166.17,727.41 3164.35,728.53 3162.94,729.00 3161.59,729.15"/>
    </edge>
    <edge id=":1261046451_2" function="internal">
        <lane id=":1261046451_2_0" index="0" disallow="tram rail_urban rail rail_electric ship" speed="3.65" length="2.34" shape="3166.17,727.41 3164.73,727.54 3163.91,727.17"/>
    </edge>
    <edge id=":1261046451_9" function="internal">
        <lane id=":1261046451_9_0" index="0" disallow="tram rail_urban rail rail_electric ship" speed="13.66" length="2.37" shape="3161.59,729.15 3161.41,729.17 3159.23,729.39"/>
    </edge>
    <edge id=":1261046451_10" function="internal">
        <lane id=":1261046451_10_0" index="0" disallow="tram rail_urban rail rail_electric ship" speed="3.65" length="2.34" shape="3163.91,727.17 3163.72,726.30 3164.15,724.92"/>
    </edge>
    <edge id=":1261046451_3" function="internal">
        <lane id=":1261046451_3_0" index="0" disallow="tram rail_urban rail rail_electric ship" speed="11.99" length="5.62" shape="3158.80,726.22 3160.47,726.09 3161.66,726.03 3162.75,725.74 3164.15,724.92"/>
    </edge>
    <edge id=":1261046451_4" function="internal">
        <lane id=":1261046451_4_0" index="0" disallow="tram rail_urban rail rail_electric ship" speed="5.39" length="10.42" shape="3158.80,726.22 3162.95,725.91 3165.06,726.39 3165.15,727.65 3163.20,729.70"/>
    </edge>
    <edge id=":1261046451_5" function="internal">
        <lane id=":1261046451_5_0" index="0" disallow="tram rail_urban rail rail_electric ship" speed="3.65" length="4.67" shape="3158.80,726.22 3160.10,726.85 3160.60,727.59 3160.31,728.44 3159.23,729.39"/>
    </edge>
    <edge id=":1261046451_6" function="internal">
        <lane id=":1261046451_6_0" index="0" disallow="tram rail_urban rail rail_electric ship" speed="27.78" length="3.77" shape="3161.16,727.23 3164.15,724.92"/>
    </edge>
    <edge id=":1261046451_7" function="internal">
        <lane id=":1261046451_7_0" index="0" disallow="tram rail_urban rail rail_electric ship" speed="3.65" length="2.34" shape="3161.16,727.23 3162.60,727.08 3163.42,727.44"/>
    </edge>
    <edge id=":1261046451_8" function="internal">
        <lane id=":1261046451_8_0" index="0" disallow="tram rail_urban rail rail_electric ship" speed="3.36" length="2.90" shape="3161.16,727.23 3159.23,729.39"/>
    </edge>
    <edge id=":1261046451_11" function="internal">
        <lane id=":1261046451_11_0" index="0" disallow="tram rail_urban rail rail_electric ship" speed="3.65" length="2.34" shape="3163.42,727.44 3163.62,728.32 3163.20,729.70"/>
    </edge>
    <edge id=":1261934047_0" function="internal">
        <lane id=":1261934047_0_0" index="0" allow="bicycle pedestrian" speed="2.78" length="6.02" width="2.00" shape="3138.87,736.19 3140.36,735.22 3141.27,734.41 3142.04,733.43 3143.06,731.97"/>
    </edge>
    <edge id=":1261934047_1" function="internal">
        <lane id=":1261934047_1_0" index="0" allow="bicycle pedestrian" speed="2.78" length="4.00" width="2.00" shape="3138.87,736.19 3139.87,735.76 3140.79,735.74 3141.61,736.13 3142.35,736.93"/>
    </edge>
    <edge id=":1261934050_0" function="internal">
        <lane id=":1261934050_0_0" index="0" disallow="tram rail_urban rail rail_electric ship" speed="8.33" length="0.28" shape="3164.15,739.14 3164.03,738.88"/>
    </edge>
    <edge id=":1261934060_0" function="internal">
        <lane id=":1261934060_0_0" index="0" disallow="tram rail_urban rail rail_electric ship" speed="13.89" length="0.10" shape="3074.93,801.32 3074.93,801.32"/>
    </edge>
    <edge id=":1261956790_0" function="internal">
        <lane id=":1261956790_0_0" index="0" disallow="tram rail_urban rail rail_electric ship" speed="27.78" length="5.02" shape="3148.33,740.65 3144.38,743.75"/>
    </edge>
    <edge id=":1261956790_1" function="internal">
        <lane id=":1261956790_1_0" index="0" disallow="tram rail_urban rail rail_electric ship" speed="4.60" length="4.58" shape="3142.50,737.14 3143.42,738.18 3144.37,738.69 3145.34,738.68 3146.35,738.14"/>
    </edge>
    <edge id=":1261956790_2" function="internal">
        <lane id=":1261956790_2_0" index="0" disallow="tram rail_urban rail rail_electric ship" speed="5.92" length="7.34" shape="3142.50,737.14 3143.98,739.52 3144.79,741.41 3144.92,742.82 3144.38,743.75"/>
    </edge>
    <edge id=":1261956790_3" function="internal">
        <lane id=":1261956790_3_0" index="0" disallow="tram rail_urban rail rail_electric ship" speed="27.78" length="5.01" shape="3142.41,741.23 3146.35,738.14"/>
    </edge>
    <edge id=":1261956790_4" function="internal">
        <lane id=":1261956790_4_0" index="0" disallow="tram rail_urban rail rail_electric ship" speed="3.65" length="2.34" shape="3142.41,741.23 3143.85,741.12 3144.65,741.50"/>
    </edge>
    <edge id=":1261956790_5" function="internal">
        <lane id=":1261956790_5_0" index="0" disallow="tram rail_urban rail rail_electric ship" speed="3.65" length="2.34" shape="3144.65,741.50 3144.83,742.38 3144.38,743.75"/>
    </edge>
    <edge id=":1290323347_0" function="internal">
        <lane id=":1290323347_0_0" index="0" disallow="tram rail_urban rail rail_electric ship" speed="8.33" length="0.38" shape="3030.75,1586.84 3030.53,1586.53"/>
    </edge>
    <edge id=":1290323347_1" function="internal">
        <lane id=":1290323347_1_0" index="0" disallow="tram rail_urban rail rail_electric ship" speed="8.33" length="0.13" shape="3033.21,1584.79 3033.29,1584.90"/>
    </edge>
    <edge id=":1290341701_0" function="internal">
        <lane id=":1290341701_0_0" index="0" disallow="tram rail_urban rail rail_electric ship" speed="13.89" length="0.30" shape="2900.63,1577.83 2900.81,1578.08"/>
        <lane id=":1290341701_0_1" index="1" disallow="tram rail_urban rail rail_electric ship" speed="13.89" length="0.30" shape="2898.06,1579.73 2898.22,1579.96"/>
    </edge>
    <edge id=":1291689521_0" function="internal">
        <lane id=":1291689521_0_0" index="0" disallow="tram rail_urban rail rail_electric ship" speed="8.33" length="0.31" shape="2602.03,1511.90 2601.82,1511.67"/>
    </edge>
    <edge id=":1291689521_1" function="internal">
        <lane id=":1291689521_1_0" index="0" disallow="tram rail_urban rail rail_electric ship" speed="3.65" length="2.34" shape="2602.03,1511.90 2601.76,1510.48 2602.06,1509.63"/>
    </edge>
    <edge id=":1291689521_3" function="internal">
        <lane id=":1291689521_3_0" index="0" disallow="tram rail_urban rail rail_electric ship" speed="3.65" length="2.34" shape="2602.06,1509.63 2602.91,1509.36 2604.32,1509.66"/>
    </edge>
    <edge id=":1291689521_2" function="internal">
        <lane id=":1291689521_2_0" index="0" disallow="tram rail_urban rail rail_electric ship" speed="8.33" length="0.24" shape="2604.16,1509.49 2604.32,1509.66"/>
    </edge>
    <edge id=":1305682377_0" function="internal">
        <lane id=":1305682377_0_0" index="0" disallow="tram rail_urban rail rail_electric ship" speed="8.33" length="0.31" shape="2661.84,1576.85 2661.63,1576.62"/>
    </edge>
    <edge id=":1305682377_1" function="internal">
        <lane id=":1305682377_1_0" index="0" disallow="tram rail_urban rail rail_electric ship" speed="3.65" length="2.34" shape="2661.84,1576.85 2661.61,1575.43 2661.92,1574.59"/>
    </edge>
    <edge id=":1305682377_4" function="internal">
        <lane id=":1305682377_4_0" index="0" disallow="tram rail_urban rail rail_electric ship" speed="3.65" length="2.34" shape="2661.92,1574.59 2662.77,1574.33 2664.18,1574.66"/>
    </edge>
    <edge id=":1305682377_2" function="internal">
        <lane id=":1305682377_2_0" index="0" disallow="tram rail_urban rail rail_electric ship" speed="8.33" length="0.27" shape="2663.99,1574.46 2664.18,1574.66"/>
    </edge>
    <edge id=":1305682377_3" function="internal">
        <lane id=":1305682377_3_0" index="0" disallow="tram rail_urban rail rail_electric ship" speed="3.65" length="2.34" shape="2663.99,1574.46 2664.21,1575.89 2663.89,1576.72"/>
    </edge>
    <edge id=":1305682377_5" function="internal">
        <lane id=":1305682377_5_0" index="0" disallow="tram rail_urban rail rail_electric ship" speed="3.65" length="2.34" shape="2663.89,1576.72 2663.03,1576.97 2661.63,1576.62"/>
    </edge>
    <edge id=":1347778250_0" function="internal">