<?xml version="1.0" encoding="UTF-8"?>

<!-- generated on Wed Apr  3 11:39:42 2019 by Eclipse SUMO netconvert Version 1.1.0
<configuration xmlns:xsi="http://www.w3.org/2001/XMLSchema-instance" xsi:noNamespaceSchemaLocation="http://sumo.dlr.de/xsd/netconvertConfiguration.xsd">

    <input>
        <type-files value="/usr/share/sumo/data/typemap/osmNetconvert.typ.xml,/usr/share/sumo/data/typemap/osmNetconvertBicycle.typ.xml"/>
        <osm-files value="osm_bbox.osm.xml"/>
    </input>

    <output>
        <output-file value="osm.net.xml"/>
        <output.street-names value="true"/>
        <output.original-names value="true"/>
    </output>

    <projection>
        <proj.utm value="true"/>
    </projection>

    <processing>
        <geometry.remove value="true"/>
        <roundabouts.guess value="true"/>
    </processing>

    <tls_building>
        <tls.discard-simple value="true"/>
        <tls.join value="true"/>
        <tls.guess-signals value="true"/>
        <tls.default-type value="actuated"/>
    </tls_building>

    <ramp_guessing>
        <ramps.guess value="true"/>
    </ramp_guessing>

    <junctions>
        <junctions.join value="true"/>
        <junctions.corner-detail value="5"/>
    </junctions>

    <report>
        <verbose value="true"/>
    </report>

</configuration>
-->

<net version="1.1" junctionCornerDetail="5" limitTurnSpeed="5.50" xmlns:xsi="http://www.w3.org/2001/XMLSchema-instance" xsi:noNamespaceSchemaLocation="http://sumo.dlr.de/xsd/net_file.xsd">

    <location netOffset="-398500.45,-5652342.14" convBoundary="0.00,0.00,1420.36,1630.28" origBoundary="7.552597,51.003476,7.625615,51.032696" projParameter="+proj=utm +zone=32 +ellps=WGS84 +datum=WGS84 +units=m +no_defs"/>

    <type id="cycleway.lane" allow="bicycle" bikeLaneWidth="1.00"/>
    <type id="cycleway.opposite_lane" allow="bicycle" bikeLaneWidth="1.00"/>
    <type id="cycleway.opposite_track" allow="bicycle" bikeLaneWidth="1.50"/>
    <type id="cycleway.track" allow="bicycle" bikeLaneWidth="1.50"/>
    <type id="highway.bridleway" priority="1" numLanes="1" speed="2.78" allow="pedestrian" oneway="1" width="2.00"/>
    <type id="highway.bus_guideway" priority="1" numLanes="1" speed="27.78" allow="bus" oneway="1"/>
    <type id="highway.cycleway" priority="1" numLanes="1" speed="8.33" allow="bicycle" oneway="0" width="1.00"/>
    <type id="highway.footway" priority="1" numLanes="1" speed="2.78" allow="pedestrian" oneway="1" width="2.00"/>
    <type id="highway.ford" priority="1" numLanes="1" speed="2.78" allow="army" oneway="0"/>
    <type id="highway.living_street" priority="3" numLanes="1" speed="2.78" disallow="tram rail_urban rail rail_electric ship" oneway="0"/>
    <type id="highway.motorway" priority="13" numLanes="2" speed="44.44" allow="private emergency authority army vip passenger hov taxi bus coach delivery truck trailer motorcycle evehicle custom1 custom2" oneway="1"/>
    <type id="highway.motorway_link" priority="12" numLanes="1" speed="22.22" allow="private emergency authority army vip passenger hov taxi bus coach delivery truck trailer motorcycle evehicle custom1 custom2" oneway="1"/>
    <type id="highway.path" priority="1" numLanes="1" speed="2.78" allow="bicycle pedestrian" oneway="1" width="2.00"/>
    <type id="highway.pedestrian" priority="1" numLanes="1" speed="2.78" allow="pedestrian" oneway="1" width="2.00"/>
    <type id="highway.primary" priority="9" numLanes="2" speed="27.78" disallow="tram rail_urban rail rail_electric ship" oneway="0"/>
    <type id="highway.primary_link" priority="8" numLanes="1" speed="22.22" disallow="tram rail_urban rail rail_electric ship" oneway="0"/>
    <type id="highway.raceway" priority="14" numLanes="2" speed="83.33" allow="vip" oneway="0"/>
    <type id="highway.residential" priority="4" numLanes="1" speed="13.89" disallow="tram rail_urban rail rail_electric ship" oneway="0"/>
    <type id="highway.secondary" priority="7" numLanes="2" speed="27.78" disallow="tram rail_urban rail rail_electric ship" oneway="0"/>
    <type id="highway.secondary_link" priority="6" numLanes="1" speed="22.22" disallow="tram rail_urban rail rail_electric ship" oneway="0"/>
    <type id="highway.service" priority="2" numLanes="1" speed="5.56" allow="delivery bicycle pedestrian" oneway="0"/>
    <type id="highway.stairs" priority="1" numLanes="1" speed="1.39" allow="pedestrian" oneway="1" width="2.00"/>
    <type id="highway.step" priority="1" numLanes="1" speed="1.39" allow="pedestrian" oneway="1" width="2.00"/>
    <type id="highway.steps" priority="1" numLanes="1" speed="1.39" allow="pedestrian" oneway="1" width="2.00"/>
    <type id="highway.tertiary" priority="6" numLanes="1" speed="22.22" disallow="tram rail_urban rail rail_electric ship" oneway="0"/>
    <type id="highway.tertiary_link" priority="5" numLanes="1" speed="22.22" disallow="tram rail_urban rail rail_electric ship" oneway="0"/>
    <type id="highway.track" priority="1" numLanes="1" speed="5.56" disallow="tram rail_urban rail rail_electric ship" oneway="0"/>
    <type id="highway.trunk" priority="11" numLanes="2" speed="27.78" disallow="tram rail_urban rail rail_electric bicycle pedestrian ship" oneway="0"/>
    <type id="highway.trunk_link" priority="10" numLanes="1" speed="22.22" disallow="tram rail_urban rail rail_electric bicycle pedestrian ship" oneway="0"/>
    <type id="highway.unclassified" priority="5" numLanes="1" speed="13.89" disallow="tram rail_urban rail rail_electric ship" oneway="0"/>
    <type id="highway.unsurfaced" priority="1" numLanes="1" speed="8.33" disallow="tram rail_urban rail rail_electric ship" oneway="0"/>
    <type id="railway.light_rail" priority="15" numLanes="1" speed="27.78" allow="rail_urban" oneway="1"/>
    <type id="railway.preserved" priority="15" numLanes="1" speed="27.78" allow="rail" oneway="1"/>
    <type id="railway.rail" priority="15" numLanes="1" speed="83.33" allow="rail rail_electric" oneway="1"/>
    <type id="railway.subway" priority="15" numLanes="1" speed="27.78" allow="rail_urban" oneway="1"/>
    <type id="railway.tram" priority="15" numLanes="1" speed="13.89" allow="tram" oneway="1"/>

    <edge id=":11132850_0" function="internal">
        <lane id=":11132850_0_0" index="0" disallow="tram rail_urban rail rail_electric ship" speed="3.65" length="4.67" shape="71.89,1119.98 70.61,1119.32 70.13,1118.56 70.44,1117.73 71.55,1116.80"/>
    </edge>
    <edge id=":1149317003_0" function="internal">
        <lane id=":1149317003_0_0" index="0" disallow="tram rail_urban rail rail_electric ship" speed="8.33" length="6.06" shape="832.42,1327.80 831.15,1329.06 830.23,1329.88 829.23,1330.61 827.72,1331.58"/>
    </edge>
    <edge id=":1149317003_1" function="internal">
        <lane id=":1149317003_1_0" index="0" disallow="tram rail_urban rail rail_electric ship" speed="3.65" length="4.67" shape="832.42,1327.80 831.01,1328.08 830.16,1327.80 829.87,1326.96 830.15,1325.54"/>
    </edge>
    <edge id=":1149317003_2" function="internal">
        <lane id=":1149317003_2_0" index="0" disallow="tram rail_urban rail rail_electric ship" speed="8.33" length="5.35" shape="825.99,1328.89 827.33,1328.02 828.21,1327.39 829.02,1326.66 830.15,1325.54"/>
    </edge>
    <edge id=":1149317003_3" function="internal">
        <lane id=":1149317003_3_0" index="0" disallow="tram rail_urban rail rail_electric ship" speed="3.65" length="4.67" shape="825.99,1328.89 827.44,1328.91 828.20,1329.37 828.30,1330.26 827.72,1331.58"/>
    </edge>
    <edge id=":1221393449_0" function="internal">
        <lane id=":1221393449_0_0" index="0" allow="delivery bicycle pedestrian" speed="4.74" length="5.53" shape="687.99,1308.01 686.78,1306.94 685.66,1306.67 684.62,1307.18 683.68,1308.49"/>
    </edge>
    <edge id=":1221393449_1" function="internal">
        <lane id=":1221393449_1_0" index="0" disallow="tram rail_urban rail rail_electric ship" speed="8.33" length="9.72" shape="687.99,1308.01 686.08,1305.84 684.79,1304.34 683.68,1302.70 682.32,1300.17"/>
    </edge>
    <edge id=":1221393449_2" function="internal">
        <lane id=":1221393449_2_0" index="0" disallow="tram rail_urban rail rail_electric ship" speed="3.65" length="2.34" shape="687.99,1308.01 687.81,1306.58 688.16,1305.75"/>
    </edge>
    <edge id=":1221393449_9" function="internal">
        <lane id=":1221393449_9_0" index="0" disallow="tram rail_urban rail rail_electric ship" speed="3.65" length="2.34" shape="688.16,1305.75 689.02,1305.53 690.41,1305.92"/>
    </edge>
    <edge id=":1221393449_3" function="internal">
        <lane id=":1221393449_3_0" index="0" disallow="tram rail_urban rail rail_electric ship" speed="8.33" length="8.93" shape="685.18,1298.74 686.43,1301.06 687.46,1302.56 688.65,1303.94 690.41,1305.92"/>
    </edge>
    <edge id=":1221393449_4" function="internal">
        <lane id=":1221393449_4_0" index="0" allow="delivery bicycle pedestrian" speed="6.95" length="4.18" shape="685.18,1298.74 685.76,1300.68 685.70,1302.84"/>
    </edge>
    <edge id=":1221393449_5" function="internal">
        <lane id=":1221393449_5_0" index="0" disallow="tram rail_urban rail rail_electric ship" speed="3.65" length="2.34" shape="685.18,1298.74 685.01,1300.17 684.47,1300.89"/>
    </edge>
    <edge id=":1221393449_10" function="internal">
        <lane id=":1221393449_10_0" index="0" allow="delivery bicycle pedestrian" speed="6.95" length="6.03" shape="685.70,1302.84 685.70,1302.95 685.01,1305.56 683.68,1308.49"/>
    </edge>
    <edge id=":1221393449_11" function="internal">
        <lane id=":1221393449_11_0" index="0" disallow="tram rail_urban rail rail_electric ship" speed="3.65" length="2.34" shape="684.47,1300.89 683.58,1300.89 682.32,1300.17"/>
    </edge>
    <edge id=":1221393449_6" function="internal">
        <lane id=":1221393449_6_0" index="0" disallow="tram rail_urban rail rail_electric ship" speed="6.95" length="7.18" shape="680.85,1306.99 681.89,1304.79 682.48,1302.92 682.62,1301.38 682.32,1300.17"/>
    </edge>
    <edge id=":1221393449_7" function="internal">
        <lane id=":1221393449_7_0" index="0" disallow="tram rail_urban rail rail_electric ship" speed="6.67" length="12.27" shape="680.85,1306.99 682.95,1304.10 685.24,1302.95 687.73,1303.56 690.41,1305.92"/>
    </edge>
    <edge id=":1221393449_8" function="internal">
        <lane id=":1221393449_8_0" index="0" allow="delivery bicycle pedestrian" speed="3.65" length="4.67" shape="680.85,1306.99 682.12,1306.31 683.02,1306.33 683.54,1307.05 683.68,1308.49"/>
    </edge>
    <edge id=":1704430158_0" function="internal">
        <lane id=":1704430158_0_0" index="0" disallow="tram rail_urban rail rail_electric ship" speed="3.65" length="4.67" shape="353.81,24.01 354.30,22.65 354.99,22.08 355.86,22.28 356.92,23.26"/>
    </edge>
    <edge id=":1833625136_0" function="internal">
        <lane id=":1833625136_0_0" index="0" disallow="tram rail_urban rail rail_electric ship" speed="9.68" length="9.81" shape="1009.09,1128.48 1006.39,1129.45 1004.20,1130.70 1002.53,1132.24 1001.37,1134.05"/>
    </edge>
    <edge id=":1833625136_1" function="internal">
        <lane id=":1833625136_1_0" index="0" disallow="tram rail_urban rail rail_electric ship" speed="9.63" length="14.26" shape="1009.09,1128.48 1005.46,1129.01 1002.13,1128.50 999.08,1126.94 996.32,1124.33"/>
    </edge>
    <edge id=":1833625136_2" function="internal">
        <lane id=":1833625136_2_0" index="0" disallow="tram rail_urban rail rail_electric ship" speed="7.91" length="9.14" shape="998.46,1132.72 998.98,1130.79 998.79,1128.74 997.91,1126.59 996.32,1124.33"/>
    </edge>
    <edge id=":1833869729_0" function="internal">
        <lane id=":1833869729_0_0" index="0" disallow="tram rail_urban rail rail_electric ship" speed="11.11" length="0.21" shape="957.42,1330.83 957.45,1330.77 957.47,1330.74 957.49,1330.70 957.51,1330.64"/>
    </edge>
    <edge id=":1834159811_0" function="internal">
        <lane id=":1834159811_0_0" index="0" disallow="tram rail_urban rail rail_electric ship" speed="22.22" length="8.68" shape="168.12,1121.06 165.83,1119.89 164.22,1119.15 162.57,1118.53 160.13,1117.70"/>
    </edge>
    <edge id=":1834159811_1" function="internal">
        <lane id=":1834159811_1_0" index="0" allow="delivery bicycle pedestrian" speed="6.99" length="4.86" shape="168.12,1121.06 165.98,1119.54 164.77,1117.66"/>
    </edge>
    <edge id=":1834159811_2" function="internal">
        <lane id=":1834159811_2_0" index="0" disallow="tram rail_urban rail rail_electric ship" speed="3.65" length="2.34" shape="168.12,1121.06 167.42,1119.80 167.43,1118.91"/>
    </edge>
    <edge id=":1834159811_9" function="internal">
        <lane id=":1834159811_9_0" index="0" allow="delivery bicycle pedestrian" speed="6.99" length="4.93" shape="164.77,1117.66 164.48,1115.42 165.13,1112.82"/>
    </edge>
    <edge id=":1834159811_10" function="internal">
        <lane id=":1834159811_10_0" index="0" disallow="tram rail_urban rail rail_electric ship" speed="3.65" length="2.34" shape="167.43,1118.91 168.15,1118.38 169.59,1118.22"/>
    </edge>
    <edge id=":1834159811_3" function="internal">
        <lane id=":1834159811_3_0" index="0" disallow="tram rail_urban rail rail_electric ship" speed="5.20" length="4.98" shape="168.10,1114.01 167.76,1115.34 167.90,1116.49 168.51,1117.45 169.59,1118.22"/>
    </edge>
    <edge id=":1834159811_4" function="internal">
        <lane id=":1834159811_4_0" index="0" disallow="tram rail_urban rail rail_electric ship" speed="6.91" length="9.89" shape="168.10,1114.01 166.76,1116.34 164.99,1117.74 162.78,1118.19 160.13,1117.70"/>
    </edge>
    <edge id=":1834159811_5" function="internal">
        <lane id=":1834159811_5_0" index="0" allow="delivery bicycle pedestrian" speed="3.65" length="4.67" shape="168.10,1114.01 166.91,1114.83 166.02,1114.90 165.42,1114.24 165.13,1112.82"/>
    </edge>
    <edge id=":1834159811_6" function="internal">
        <lane id=":1834159811_6_0" index="0" allow="delivery bicycle pedestrian" speed="5.10" length="4.93" shape="161.15,1114.66 162.47,1114.91 163.57,1114.68 164.46,1113.99 165.13,1112.82"/>
    </edge>
    <edge id=":1834159811_7" function="internal">
        <lane id=":1834159811_7_0" index="0" disallow="tram rail_urban rail rail_electric ship" speed="22.22" length="9.17" shape="161.15,1114.66 163.73,1115.54 165.47,1116.20 167.16,1116.98 169.59,1118.22"/>
    </edge>
    <edge id=":1834159811_8" function="internal">
        <lane id=":1834159811_8_0" index="0" disallow="tram rail_urban rail rail_electric ship" speed="3.65" length="2.34" shape="161.15,1114.66 162.04,1115.80 162.16,1116.69"/>
    </edge>
    <edge id=":1834159811_11" function="internal">
        <lane id=":1834159811_11_0" index="0" disallow="tram rail_urban rail rail_electric ship" speed="3.65" length="2.34" shape="162.16,1116.69 161.53,1117.32 160.13,1117.70"/>
    </edge>
    <edge id=":2016376851_0" function="internal">
        <lane id=":2016376851_0_0" index="0" disallow="tram rail_urban rail rail_electric ship" speed="4.17" length="0.93" shape="242.34,1017.72 242.32,1018.00 242.29,1018.18 242.26,1018.37 242.19,1018.64"/>
    </edge>
    <edge id=":2016376851_1" function="internal">
        <lane id=":2016376851_1_0" index="0" allow="delivery bicycle pedestrian" speed="3.65" length="2.34" shape="242.34,1017.72 241.46,1018.86 240.63,1019.21"/>
    </edge>
    <edge id=":2016376851_4" function="internal">
        <lane id=":2016376851_4_0" index="0" allow="delivery bicycle pedestrian" speed="3.65" length="2.34" shape="240.63,1019.21 239.86,1018.75 239.15,1017.50"/>
    </edge>
    <edge id=":2016376851_2" function="internal">
        <lane id=":2016376851_2_0" index="0" allow="delivery bicycle pedestrian" speed="4.17" length="0.31" shape="239.09,1017.81 239.12,1017.72 239.13,1017.66 239.14,1017.59 239.15,1017.50"/>
    </edge>
    <edge id=":2016376851_3" function="internal">
        <lane id=":2016376851_3_0" index="0" disallow="tram rail_urban rail rail_electric ship" speed="2.78" length="2.34" shape="239.09,1017.81 240.18,1016.86 241.05,1016.68"/>
    </edge>
    <edge id=":2016376851_5" function="internal">
        <lane id=":2016376851_5_0" index="0" disallow="tram rail_urban rail rail_electric ship" speed="2.78" length="2.34" shape="241.05,1016.68 241.72,1017.27 242.19,1018.64"/>
    </edge>
    <edge id=":2085181551_0" function="internal">
        <lane id=":2085181551_0_0" index="0" disallow="tram rail_urban rail rail_electric ship" speed="13.89" length="9.55" shape="267.87,1303.97 258.56,1306.05"/>
    </edge>
    <edge id=":2085181551_1" function="internal">
        <lane id=":2085181551_1_0" index="0" allow="delivery bicycle pedestrian" speed="7.92" length="4.42" shape="267.87,1303.97 265.53,1304.02 263.59,1303.29"/>
    </edge>
    <edge id=":2085181551_2" function="internal">
        <lane id=":2085181551_2_0" index="0" disallow="tram rail_urban rail rail_electric ship" speed="3.65" length="2.34" shape="267.87,1303.97 266.54,1303.42 265.99,1302.72"/>
    </edge>
    <edge id=":2085181551_9" function="internal">
        <lane id=":2085181551_9_0" index="0" allow="delivery bicycle pedestrian" speed="7.92" length="6.02" shape="263.59,1303.29 263.37,1303.20 261.37,1301.50 259.55,1298.93"/>
    </edge>
    <edge id=":2085181551_10" function="internal">
        <lane id=":2085181551_10_0" index="0" disallow="tram rail_urban rail rail_electric ship" speed="3.65" length="2.34" shape="265.99,1302.72 266.22,1301.86 267.24,1300.83"/>
    </edge>
    <edge id=":2085181551_3" function="internal">
        <lane id=":2085181551_3_0" index="0" disallow="tram rail_urban rail rail_electric ship" speed="6.35" length="6.44" shape="262.32,1297.33 263.50,1299.06 264.71,1300.22 265.96,1300.81 267.24,1300.83"/>
    </edge>
    <edge id=":2085181551_4" function="internal">
        <lane id=":2085181551_4_0" index="0" disallow="tram rail_urban rail rail_electric ship" speed="6.69" length="11.75" shape="262.32,1297.33 263.57,1300.46 263.37,1302.95 261.69,1304.82 258.56,1306.05"/>
    </edge>
    <edge id=":2085181551_5" function="internal">
        <lane id=":2085181551_5_0" index="0" allow="delivery bicycle pedestrian" speed="2.78" length="4.67" shape="262.32,1297.33 262.22,1298.77 261.73,1299.52 260.84,1299.57 259.55,1298.93"/>
    </edge>
    <edge id=":2085181551_6" function="internal">
        <lane id=":2085181551_6_0" index="0" allow="delivery bicycle pedestrian" speed="4.79" length="5.39" shape="257.82,1302.93 259.26,1302.37 260.03,1301.51 260.12,1300.37 259.55,1298.93"/>
    </edge>
    <edge id=":2085181551_7" function="internal">
        <lane id=":2085181551_7_0" index="0" disallow="tram rail_urban rail rail_electric ship" speed="13.89" length="9.65" shape="257.82,1302.93 267.24,1300.83"/>
    </edge>
    <edge id=":2085181551_8" function="internal">
        <lane id=":2085181551_8_0" index="0" disallow="tram rail_urban rail rail_electric ship" speed="3.65" length="2.34" shape="257.82,1302.93 259.17,1303.44 259.75,1304.12"/>
    </edge>
    <edge id=":2085181551_11" function="internal">
        <lane id=":2085181551_11_0" index="0" disallow="tram rail_urban rail rail_electric ship" speed="3.65" length="2.34" shape="259.75,1304.12 259.54,1304.99 258.56,1306.05"/>
    </edge>
    <edge id=":2085181658_0" function="internal">
        <lane id=":2085181658_0_0" index="0" allow="delivery bicycle pedestrian" speed="3.65" length="4.67" shape="555.34,1311.89 556.78,1311.93 557.55,1312.39 557.63,1313.28 557.04,1314.60"/>
    </edge>
    <edge id=":2085181697_0" function="internal">
        <lane id=":2085181697_0_0" index="0" allow="delivery bicycle pedestrian" speed="3.65" length="4.67" shape="565.13,1322.10 565.18,1320.66 565.65,1319.90 566.54,1319.82 567.85,1320.42"/>
    </edge>
    <edge id=":2085181733_0" function="internal">
        <lane id=":2085181733_0_0" index="0" allow="delivery bicycle pedestrian" speed="2.78" length="4.67" shape="146.49,1344.79 145.12,1344.35 144.51,1343.69 144.68,1342.81 145.62,1341.71"/>
    </edge>
    <edge id=":2085181738_0" function="internal">
        <lane id=":2085181738_0_0" index="0" allow="delivery bicycle pedestrian" speed="5.56" length="5.54" shape="571.68,1329.55 570.56,1329.07 569.32,1329.00 567.95,1329.35 566.47,1330.11"/>
    </edge>
    <edge id=":2085181738_1" function="internal">
        <lane id=":2085181738_1_0" index="0" allow="delivery bicycle pedestrian" speed="5.56" length="8.86" shape="571.68,1329.55 569.54,1328.06 568.21,1326.84 567.14,1325.37 565.77,1323.13"/>
    </edge>
    <edge id=":2085181738_2" function="internal">
        <lane id=":2085181738_2_0" index="0" allow="delivery bicycle pedestrian" speed="3.65" length="4.67" shape="571.68,1329.55 571.11,1328.22 571.21,1327.34 571.99,1326.88 573.43,1326.87"/>
    </edge>
    <edge id=":2085181738_3" function="internal">
        <lane id=":2085181738_3_0" index="0" allow="delivery bicycle pedestrian" speed="5.56" length="7.44" shape="568.49,1321.45 569.64,1323.33 570.53,1324.58 571.63,1325.62 573.43,1326.87"/>
    </edge>
    <edge id=":2085181738_4" function="internal">
        <lane id=":2085181738_4_0" index="0" allow="delivery bicycle pedestrian" speed="5.56" length="10.13" shape="568.49,1321.45 569.60,1323.99 569.63,1326.28 568.59,1328.32 566.47,1330.11"/>
    </edge>
    <edge id=":2085181738_5" function="internal">
        <lane id=":2085181738_5_0" index="0" allow="delivery bicycle pedestrian" speed="3.65" length="4.67" shape="568.49,1321.45 568.44,1322.89 567.97,1323.65 567.08,1323.73 565.77,1323.13"/>
    </edge>
    <edge id=":2085181738_6" function="internal">
        <lane id=":2085181738_6_0" index="0" allow="delivery bicycle pedestrian" speed="5.05" length="4.99" shape="564.77,1327.40 565.81,1326.52 566.33,1325.51 566.31,1324.38 565.77,1323.13"/>
    </edge>
    <edge id=":2085181738_7" function="internal">
        <lane id=":2085181738_7_0" index="0" allow="delivery bicycle pedestrian" speed="5.56" length="9.19" shape="564.77,1327.40 567.12,1326.23 569.35,1325.75 571.45,1325.97 573.43,1326.87"/>
    </edge>
    <edge id=":2085181738_8" function="internal">
        <lane id=":2085181738_8_0" index="0" allow="delivery bicycle pedestrian" speed="3.65" length="4.67" shape="564.77,1327.40 566.21,1327.44 566.97,1327.91 567.06,1328.80 566.47,1330.11"/>
    </edge>
    <edge id=":2085181779_0" function="internal">
        <lane id=":2085181779_0_0" index="0" disallow="tram rail_urban rail rail_electric ship" speed="8.33" length="7.54" shape="526.84,1340.56 525.08,1339.19 523.79,1338.33 522.37,1337.74 520.23,1337.14"/>
    </edge>
    <edge id=":2085181779_1" function="internal">
        <lane id=":2085181779_1_0" index="0" allow="delivery bicycle pedestrian" speed="6.90" length="4.73" shape="526.84,1340.56 524.95,1338.61 524.20,1336.74"/>
    </edge>
    <edge id=":2085181779_2" function="internal">
        <lane id=":2085181779_2_0" index="0" disallow="tram rail_urban rail rail_electric ship" speed="3.65" length="2.34" shape="526.84,1340.56 526.38,1339.19 526.56,1338.31"/>
    </edge>
    <edge id=":2085181779_9" function="internal">
        <lane id=":2085181779_9_0" index="0" allow="delivery bicycle pedestrian" speed="6.90" length="5.23" shape="524.20,1336.74 524.10,1336.51 524.30,1334.25 525.55,1331.84"/>
    </edge>
    <edge id=":2085181779_10" function="internal">
        <lane id=":2085181779_10_0" index="0" disallow="tram rail_urban rail rail_electric ship" speed="3.65" length="2.34" shape="526.56,1338.31 527.36,1337.92 528.80,1338.02"/>
    </edge>
    <edge id=":2085181779_3" function="internal">
        <lane id=":2085181779_3_0" index="0" disallow="tram rail_urban rail rail_electric ship" speed="5.09" length="4.95" shape="528.16,1333.69 527.54,1334.89 527.44,1336.01 527.86,1337.06 528.80,1338.02"/>
    </edge>
    <edge id=":2085181779_4" function="internal">
        <lane id=":2085181779_4_0" index="0" disallow="tram rail_urban rail rail_electric ship" speed="6.95" length="9.23" shape="528.16,1333.69 526.43,1335.64 524.54,1336.86 522.47,1337.36 520.23,1337.14"/>
    </edge>
    <edge id=":2085181779_5" function="internal">
        <lane id=":2085181779_5_0" index="0" allow="delivery bicycle pedestrian" speed="3.65" length="4.67" shape="528.16,1333.69 526.81,1334.21 525.93,1334.07 525.51,1333.28 525.55,1331.84"/>
    </edge>
    <edge id=":2085181779_6" function="internal">
        <lane id=":2085181779_6_0" index="0" allow="delivery bicycle pedestrian" speed="5.98" length="5.37" shape="521.02,1334.03 522.25,1334.14 523.41,1333.80 524.51,1333.04 525.55,1331.84"/>
    </edge>
    <edge id=":2085181779_7" function="internal">
        <lane id=":2085181779_7_0" index="0" disallow="tram rail_urban rail rail_electric ship" speed="8.33" length="8.86" shape="521.02,1334.03 523.54,1334.73 525.20,1335.43 526.72,1336.42 528.80,1338.02"/>
    </edge>
    <edge id=":2085181779_8" function="internal">
        <lane id=":2085181779_8_0" index="0" disallow="tram rail_urban rail rail_electric ship" speed="3.65" length="2.34" shape="521.02,1334.03 521.99,1335.10 522.18,1335.98"/>
    </edge>
    <edge id=":2085181779_11" function="internal">
        <lane id=":2085181779_11_0" index="0" disallow="tram rail_urban rail rail_electric ship" speed="3.65" length="2.34" shape="522.18,1335.98 521.59,1336.66 520.23,1337.14"/>
    </edge>
    <edge id=":2085181788_0" function="internal">
        <lane id=":2085181788_0_0" index="0" allow="delivery bicycle pedestrian" speed="3.65" length="4.67" shape="587.32,1335.93 587.89,1337.25 587.79,1338.14 587.02,1338.59 585.57,1338.61"/>
    </edge>
    <edge id=":2085181797_0" function="internal">
        <lane id=":2085181797_0_0" index="0" allow="delivery bicycle pedestrian" speed="5.56" length="7.44" shape="557.18,1342.43 554.85,1341.36 552.90,1340.85 551.35,1340.89 550.18,1341.49"/>
    </edge>
    <edge id=":2085181797_1" function="internal">
        <lane id=":2085181797_1_0" index="0" allow="delivery bicycle pedestrian" speed="5.56" length="13.12" shape="557.18,1342.43 554.00,1340.15 552.86,1337.76 553.75,1335.27 556.67,1332.67"/>
    </edge>
    <edge id=":2085181797_2" function="internal">
        <lane id=":2085181797_2_0" index="0" allow="delivery bicycle pedestrian" speed="3.65" length="4.67" shape="557.18,1342.43 556.49,1341.16 556.52,1340.27 557.25,1339.75 558.68,1339.60"/>
    </edge>
    <edge id=":2085181797_3" function="internal">
        <lane id=":2085181797_3_0" index="0" allow="delivery bicycle pedestrian" speed="4.69" length="5.75" shape="558.46,1335.32 557.18,1336.46 556.78,1337.56 557.29,1338.60 558.68,1339.60"/>
    </edge>
    <edge id=":2085181797_4" function="internal">
        <lane id=":2085181797_4_0" index="0" allow="delivery bicycle pedestrian" speed="5.56" length="10.34" shape="558.46,1335.32 555.94,1337.00 554.16,1338.20 552.46,1339.51 550.18,1341.49"/>
    </edge>
    <edge id=":2085181797_5" function="internal">
        <lane id=":2085181797_5_0" index="0" allow="delivery bicycle pedestrian" speed="3.65" length="4.67" shape="558.46,1335.32 557.02,1335.33 556.24,1334.89 556.12,1334.00 556.67,1332.67"/>
    </edge>
    <edge id=":2085181797_6" function="internal">
        <lane id=":2085181797_6_0" index="0" allow="delivery bicycle pedestrian" speed="5.56" length="10.78" shape="548.05,1339.10 550.38,1337.08 552.20,1335.68 554.10,1334.38 556.67,1332.67"/>
    </edge>
    <edge id=":2085181797_7" function="internal">
        <lane id=":2085181797_7_0" index="0" allow="delivery bicycle pedestrian" speed="5.56" length="11.32" shape="548.05,1339.10 550.07,1337.92 552.51,1337.61 555.38,1338.17 558.68,1339.60"/>
    </edge>
    <edge id=":2085181797_8" function="internal">
        <lane id=":2085181797_8_0" index="0" allow="delivery bicycle pedestrian" speed="3.65" length="4.67" shape="548.05,1339.10 549.47,1338.90 550.31,1339.23 550.54,1340.09 550.18,1341.49"/>
    </edge>
    <edge id=":2085181826_0" function="internal">
        <lane id=":2085181826_0_0" index="0" disallow="tram rail_urban rail rail_electric ship" speed="8.33" length="9.65" shape="543.02,1353.22 535.42,1347.28"/>
    </edge>
    <edge id=":2085181826_1" function="internal">
        <lane id=":2085181826_1_0" index="0" allow="delivery bicycle pedestrian" speed="6.73" length="5.34" shape="543.02,1353.22 540.81,1350.98 540.09,1348.91"/>
    </edge>
    <edge id=":2085181826_2" function="internal">
        <lane id=":2085181826_2_0" index="0" disallow="tram rail_urban rail rail_electric ship" speed="3.65" length="2.34" shape="543.02,1353.22 542.55,1351.86 542.72,1350.98"/>
    </edge>
    <edge id=":2085181826_9" function="internal">
        <lane id=":2085181826_9_0" index="0" allow="delivery bicycle pedestrian" speed="6.73" length="5.82" shape="540.09,1348.91 540.01,1348.68 540.63,1346.33 542.65,1343.92"/>
    </edge>
    <edge id=":2085181826_10" function="internal">
        <lane id=":2085181826_10_0" index="0" disallow="tram rail_urban rail rail_electric ship" speed="3.65" length="2.34" shape="542.72,1350.98 543.52,1350.59 544.96,1350.68"/>
    </edge>
    <edge id=":2085181826_3" function="internal">
        <lane id=":2085181826_3_0" index="0" disallow="tram rail_urban rail rail_electric ship" speed="4.86" length="5.25" shape="544.78,1346.30 543.83,1347.44 543.54,1348.54 543.92,1349.62 544.96,1350.68"/>
    </edge>
    <edge id=":2085181826_4" function="internal">
        <lane id=":2085181826_4_0" index="0" disallow="tram rail_urban rail rail_electric ship" speed="6.95" length="10.38" shape="544.78,1346.30 542.31,1348.05 539.93,1348.79 537.63,1348.54 535.42,1347.28"/>
    </edge>
    <edge id=":2085181826_5" function="internal">
        <lane id=":2085181826_5_0" index="0" allow="delivery bicycle pedestrian" speed="3.65" length="4.67" shape="544.78,1346.30 543.36,1346.50 542.53,1346.17 542.29,1345.31 542.65,1343.92"/>
    </edge>
    <edge id=":2085181826_6" function="internal">