<?xml version="1.0" encoding="UTF-8"?>

<!-- generated on Wed Apr  3 11:39:43 2019 by Eclipse SUMO polyconvert Version 1.1.0
<configuration xmlns:xsi="http://www.w3.org/2001/XMLSchema-instance" xsi:noNamespaceSchemaLocation="http://sumo.dlr.de/xsd/polyconvertConfiguration.xsd">

    <input>
        <net-file value="osm.net.xml"/>
        <osm-files value="osm_bbox.osm.xml"/>
        <osm.keep-full-type value="true"/>
        <type-file value="/usr/share/sumo/data/typemap/osmPolyconvert.typ.xml"/>
    </input>

    <output>
        <output-file value="osm.poly.xml"/>
    </output>

    <processing>
        <poi-layer-offset value="5"/>
    </processing>

    <report>
        <verbose value="true"/>
    </report>

</configuration>
-->

<additional xmlns:xsi="http://www.w3.org/2001/XMLSchema-instance" xsi:noNamespaceSchemaLocation="http://sumo.dlr.de/xsd/additional_file.xsd">
    <location netOffset="-398500.45,-5652342.14" convBoundary="-1037.88,-1228.20,1659.10,2720.65" origBoundary="7.537972,51.002651,7.625615,51.038147" projParameter="+proj=utm +zone=32 +ellps=WGS84 +datum=WGS84 +units=m +no_defs"/>

    <poly id="101176184" type="building.yes" color="255,230,230" fill="1" layer="-1.00" shape="458.998613,1401.200277 458.733387,1401.628173 456.785537,1401.032197 456.859467,1400.507925 456.104126,1400.266845 458.613909,1391.930426 469.498712,1395.733341 466.733040,1403.540808 458.998613,1401.200277"/>
    <poly id="101176202" type="building.yes" color="255,230,230" fill="1" layer="-1.00" shape="309.520337,1405.949669 309.658451,1407.270716 307.708927,1407.664860 307.360873,1406.370173 303.859578,1407.050559 303.519669,1405.455366 303.056842,1405.464430 302.302150,1401.674816 302.699468,1401.544671 302.266044,1399.472979 298.878034,1400.206769 297.322036,1393.829843 301.628300,1392.699853 302.345668,1395.299934 306.078384,1394.615015 306.627318,1396.495338 313.949407,1395.328548 314.702087,1399.374054 315.803662,1399.741821 316.390665,1400.342145 316.570288,1400.917073 316.284863,1401.745835 315.298620,1402.610568 315.698283,1404.749666 309.520337,1405.949669"/>
    <poly id="101176216" type="building.yes" color="255,230,230" fill="1" layer="-1.00" shape="333.410101,1401.443895 333.099167,1399.536662 331.910521,1399.737917 331.639874,1398.096871 332.779869,1397.918816 331.283427,1388.848717 335.296435,1388.147207 335.728930,1390.530391 347.088391,1388.472557 348.376576,1396.222986 345.278949,1396.739706 345.709869,1399.401020 333.410101,1401.443895"/>
    <poly id="101176228" type="building.yes" color="255,230,230" fill="1" layer="-1.00" shape="365.772635,1394.703341 364.366351,1387.010840 376.697527,1384.778319 378.089550,1392.459978 365.772635,1394.703341"/>
    <poly id="101176235" type="building.yes" color="255,230,230" fill="1" layer="-1.00" shape="412.635250,1390.449173 413.309204,1382.226512 424.895954,1383.178995 424.214969,1391.401792 412.635250,1390.449173"/>
    <poly id="101176240" type="building.yes" color="255,230,230" fill="1" layer="-1.00" shape="391.113770,1390.870241 390.594718,1380.835467 404.652978,1380.104325 405.179015,1390.138962 391.113770,1390.870241"/>
    <poly id="101176256" type="building.yes" color="255,230,230" fill="1" layer="-1.00" shape="446.332196,1397.409978 446.654823,1395.612712 431.165975,1392.422721 432.721170,1389.800422 433.397637,1389.954050 436.886677,1390.797974 437.950447,1386.004994 440.669250,1386.563637 441.647409,1382.773488 441.364732,1382.667777 442.494666,1378.029240 453.389350,1380.541551 452.099315,1385.961893 451.923404,1387.010984 452.304038,1387.103656 449.748928,1398.144084 446.332196,1397.409978"/>
    <poly id="101176267" type="building.yes" color="255,230,230" fill="1" layer="-1.00" shape="611.626412,1365.891883 608.393031,1361.972643 603.083520,1366.336782 603.679893,1367.059317 600.945907,1369.315241 599.562261,1369.231019 596.185665,1371.988947 594.034788,1373.210086 590.063253,1374.600267 589.709765,1375.897547 588.940582,1377.102830 587.843610,1378.047539 586.591122,1378.572576 586.028852,1377.081825 584.168227,1377.718855 582.802236,1378.179366 580.219838,1370.954744 581.118594,1370.636845 579.307847,1365.566321 588.190675,1362.411627 589.284752,1364.192339 590.963120,1363.202904 589.911553,1361.443609 603.056578,1350.585811 607.288385,1355.698063 608.799607,1354.411551 608.260854,1353.765758 613.148693,1349.721328 617.165988,1354.626420 616.510213,1355.173172 617.760361,1356.683869 622.868917,1352.446032 653.910470,1390.139840 644.603638,1397.807892 643.095197,1396.001884 640.936956,1397.923955 639.972969,1396.696890 639.453225,1395.227552 639.436863,1393.670520 639.913116,1392.192864 635.106476,1386.379877 633.756595,1386.228244 629.395140,1380.940520 629.494666,1379.570333 624.443932,1373.472897 625.189567,1372.857649 623.867997,1371.281601 622.518112,1371.129971 615.534088,1362.667515 611.626412,1365.891883"/>
    <poly id="106064238" type="amenity.parking" color="184,184,179" fill="1" layer="-1.00" shape="1071.202330,1332.400115 1088.798555,1295.315906 1108.044988,1296.577169 1106.846214,1313.230692 1090.436039,1342.760908 1071.202330,1332.400115"/>
    <poly id="106085486" type="landuse.construction" color="194,194,130" fill="1" layer="-3.00" shape="1026.146867,1266.554771 1030.325701,1258.497681 1011.121184,1249.660506 1007.656370,1257.636983 1026.146867,1266.554771"/>
    <poly id="106085489" type="building.retail" color="255,230,230" fill="1" layer="-1.00" shape="986.278090,1276.985665 993.124904,1261.468124 1021.803634,1274.815292 1014.314681,1289.421996 986.278090,1276.985665"/>
    <poly id="106085490" type="building.yes" color="255,230,230" fill="1" layer="-1.00" shape="810.203019,1399.906725 807.823488,1394.435626 808.985263,1393.934659 807.163816,1389.743061 812.735786,1387.320709 810.497508,1382.258442 836.610522,1370.859353 843.077756,1385.583806 810.203019,1399.906725"/>
    <poly id="177113141" type="amenity.police" color="237,199,199" fill="1" layer="-1.00" shape="1181.549756,1383.584645 1174.902179,1362.411440 1172.189837,1363.265022 1170.911669,1359.218492 1173.728339,1358.318388 1172.382956,1354.061808 1166.964629,1355.735481 1158.490583,1328.657597 1164.431212,1326.784668 1171.185035,1348.367383 1170.648089,1348.533543 1171.298772,1350.612202 1182.643477,1347.054778 1192.977896,1379.992250 1181.549756,1383.584645"/>
    <poly id="177113141#1" type="building.yes" color="255,230,230" fill="1" layer="-1.00" shape="1181.549756,1383.584645 1174.902179,1362.411440 1172.189837,1363.265022 1170.911669,1359.218492 1173.728339,1358.318388 1172.382956,1354.061808 1166.964629,1355.735481 1158.490583,1328.657597 1164.431212,1326.784668 1171.185035,1348.367383 1170.648089,1348.533543 1171.298772,1350.612202 1182.643477,1347.054778 1192.977896,1379.992250 1181.549756,1383.584645"/>
    <poly id="177210595" type="amenity.fuel" color="237,199,199" fill="1" layer="-1.00" shape="208.228969,1112.537393 212.359974,1096.727144 199.321553,1093.334052 195.190584,1109.144312 208.228969,1112.537393"/>
    <poly id="177210595#1" type="building.yes" color="255,230,230" fill="1" layer="-1.00" shape="208.228969,1112.537393 212.359974,1096.727144 199.321553,1093.334052 195.190584,1109.144312 208.228969,1112.537393"/>
    <poly id="198381416" type="amenity.social_facility" color="237,199,199" fill="1" layer="-1.00" shape="193.153439,1312.630420 192.286452,1310.989947 187.065008,1314.106911 187.614538,1314.941558 174.521047,1324.097459 175.805927,1325.941091 167.204362,1331.983216 158.355882,1319.353055 154.584807,1322.018898 153.127521,1321.758256 152.073144,1320.221579 152.325298,1318.770518 154.664568,1317.501002 151.143386,1312.519780 160.368473,1306.076063 163.917483,1311.045621 163.779411,1311.159568 165.239142,1313.333488 179.495292,1303.364966 180.621317,1304.978110 187.242538,1300.977150 186.753940,1300.030069 202.875135,1291.793758 200.547847,1287.234059 210.556783,1282.121068 213.372223,1287.605616 211.316303,1288.658195 211.684478,1290.619920 217.812035,1302.591565 208.427950,1307.369699 207.406290,1305.354041 193.153439,1312.630420"/>
    <poly id="198381416#1" type="building.yes" color="255,230,230" fill="1" layer="-1.00" shape="193.153439,1312.630420 192.286452,1310.989947 187.065008,1314.106911 187.614538,1314.941558 174.521047,1324.097459 175.805927,1325.941091 167.204362,1331.983216 158.355882,1319.353055 154.584807,1322.018898 153.127521,1321.758256 152.073144,1320.221579 152.325298,1318.770518 154.664568,1317.501002 151.143386,1312.519780 160.368473,1306.076063 163.917483,1311.045621 163.779411,1311.159568 165.239142,1313.333488 179.495292,1303.364966 180.621317,1304.978110 187.242538,1300.977150 186.753940,1300.030069 202.875135,1291.793758 200.547847,1287.234059 210.556783,1282.121068 213.372223,1287.605616 211.316303,1288.658195 211.684478,1290.619920 217.812035,1302.591565 208.427950,1307.369699 207.406290,1305.354041 193.153439,1312.630420"/>
    <poly id="198381417" type="building.yes" color="255,230,230" fill="1" layer="-1.00" shape="531.628283,1287.095046 531.815513,1286.624182 536.200561,1276.593700 539.816199,1278.169401 538.587191,1280.974399 544.318300,1283.465430 541.071893,1291.093135 531.628283,1287.095046"/>
    <poly id="198381417#1" type="shop.kiosk" color="237,199,255" fill="1" layer="-1.00" shape="531.628283,1287.095046 531.815513,1286.624182 536.200561,1276.593700 539.816199,1278.169401 538.587191,1280.974399 544.318300,1283.465430 541.071893,1291.093135 531.628283,1287.095046"/>
    <poly id="198381418" type="building.yes" color="255,230,230" fill="1" layer="-1.00" shape="460.210644,1350.173274 461.873352,1341.208233 481.349995,1344.909929 479.834955,1353.894324 460.210644,1350.173274"/>
    <poly id="198381422" type="building.yes" color="255,230,230" fill="1" layer="-1.00" shape="446.451229,1347.894952 447.044959,1344.535033 446.105107,1344.186322 446.244814,1343.438285 448.594634,1343.781671 449.232017,1340.142799 443.623399,1339.251326 444.663321,1332.879214 445.146101,1329.944174 456.727740,1332.064847 453.613916,1349.334483 446.451229,1347.894952"/>
    <poly id="198381425" type="building.yes" color="255,230,230" fill="1" layer="-1.00" shape="408.296691,1331.121024 409.877237,1322.980743 417.892196,1324.592661 419.695259,1324.957853 419.096541,1328.062022 418.142966,1333.108701 408.296691,1331.121024"/>
    <poly id="198381428" type="building.yes" color="255,230,230" fill="1" layer="-1.00" shape="396.243284,1303.813939 398.024514,1294.457218 409.593534,1296.644778 407.812284,1306.001496 396.243284,1303.813939"/>
    <poly id="198381430" type="building.yes" color="255,230,230" fill="1" layer="-1.00" shape="519.015499,1281.034230 520.456517,1277.591020 523.860127,1269.392909 526.549072,1270.575123 526.307478,1271.136041 536.602638,1275.629185 536.200561,1276.593700 531.815513,1286.624182 519.015499,1281.034230"/>
    <poly id="198381430#1" type="shop.alcohol" color="237,199,255" fill="1" layer="-1.00" shape="519.015499,1281.034230 520.456517,1277.591020 523.860127,1269.392909 526.549072,1270.575123 526.307478,1271.136041 536.602638,1275.629185 536.200561,1276.593700 531.815513,1286.624182 519.015499,1281.034230"/>
    <poly id="198381431" type="building.yes" color="255,230,230" fill="1" layer="-1.00" shape="359.310014,1298.207161 359.495196,1296.557191 360.094607,1291.339449 360.507096,1287.682719 368.782998,1288.644266 368.832158,1289.722327 369.381323,1289.822819 368.099566,1299.247644 359.310014,1298.207161"/>
    <poly id="198381432" type="building.yes" color="255,230,230" fill="1" layer="-1.00" shape="325.211288,1294.413970 325.292702,1293.555831 324.118102,1293.400846 324.402722,1290.380681 325.597489,1290.490776 326.150002,1285.029219 335.021995,1285.979042 334.607782,1289.546817 336.302626,1289.758364 335.911363,1293.781771 334.140252,1293.616214 333.942359,1295.333177 325.211288,1294.413970"/>
    <poly id="198381434" type="building.yes" color="255,230,230" fill="1" layer="-1.00" shape="271.505704,1318.970691 270.195607,1310.108311 277.406699,1308.999266 278.799846,1317.804401 271.505704,1318.970691"/>
    <poly id="198381436" type="building.yes" color="255,230,230" fill="1" layer="-1.00" shape="230.478342,1331.054269 226.975362,1322.702080 233.626922,1319.890850 235.758211,1324.832618 237.217789,1328.074461 234.422465,1329.341752 230.478342,1331.054269"/>
    <poly id="198381437" type="building.yes" color="255,230,230" fill="1" layer="-1.00" shape="386.999648,1301.436295 386.798356,1302.263406 383.271959,1301.664973 383.317666,1300.774162 382.481418,1300.701534 383.428539,1294.609323 384.290925,1289.564422 394.495856,1291.233568 393.765496,1295.497207 396.034671,1296.020131 395.022029,1301.991258 392.726982,1301.580081 392.575431,1302.439590 386.999648,1301.436295"/>
    <poly id="198381438" type="building.yes" color="255,230,230" fill="1" layer="-1.00" shape="190.316148,1353.622242 185.505575,1346.563848 192.968802,1341.500732 194.109713,1343.158083 195.584432,1342.161386 198.069578,1345.828071 196.652704,1346.912625 197.765126,1348.548288 190.316148,1353.622242"/>
    <poly id="198381441" type="building.yes" color="255,230,230" fill="1" layer="-1.00" shape="450.167134,1314.061102 452.092134,1305.235540 468.930318,1308.176741 467.625174,1317.490755 450.167134,1314.061102"/>
    <poly id="198381444" type="building.yes" color="255,230,230" fill="1" layer="-1.00" shape="429.570880,1335.977625 429.857738,1334.503653 426.238464,1333.818016 427.887207,1325.576292 432.408452,1326.466768 432.375346,1326.567531 439.227988,1327.935240 438.786960,1330.135283 437.330530,1337.449954 432.929597,1336.612741 429.570880,1335.977625"/>
    <poly id="198381448" type="building.yes" color="255,230,230" fill="1" layer="-1.00" shape="423.514664,1308.975894 423.012094,1309.464054 421.765852,1309.232581 421.612331,1308.557023 420.865510,1308.393648 422.830086,1298.365913 427.394519,1299.311160 427.105484,1300.673935 432.241854,1301.808231 430.490245,1310.530294 423.514664,1308.975894"/>
    <poly id="198381451" type="building.yes" color="255,230,230" fill="1" layer="-1.00" shape="540.169067,1315.260851 534.152649,1319.349649 526.906251,1316.498901 533.887893,1300.054783 547.765837,1305.523596 543.409532,1316.665901 540.169067,1315.260851"/>
    <poly id="198381451#1" type="shop.florist" color="237,199,255" fill="1" layer="-1.00" shape="540.169067,1315.260851 534.152649,1319.349649 526.906251,1316.498901 533.887893,1300.054783 547.765837,1305.523596 543.409532,1316.665901 540.169067,1315.260851"/>
    <poly id="198381452" type="building.yes" color="255,230,230" fill="1" layer="-1.00" shape="342.211678,1296.317058 342.638397,1292.671171 342.132008,1292.247250 342.502050,1289.648125 343.029353,1289.348580 343.137126,1288.044967 343.391606,1285.993178 352.784491,1287.032949 352.353193,1290.445322 352.973308,1290.944885 352.654092,1293.632007 351.903035,1293.969302 351.459237,1297.459787 342.211678,1296.317058"/>
    <poly id="198381453" type="building.yes" color="255,230,230" fill="1" layer="-1.00" shape="400.853362,1319.642117 391.873742,1317.848869 390.044801,1326.917304 395.031061,1327.909889 399.024406,1328.710549 399.344361,1327.135812 400.732087,1320.256307 400.853362,1319.642117"/>
    <poly id="198381454" type="building.yes" color="255,230,230" fill="1" layer="-1.00" shape="294.942550,1317.110002 294.772115,1307.691347 302.723374,1307.480007 303.005780,1316.885345 294.942550,1317.110002"/>
    <poly id="198381456" type="building.yes" color="255,230,230" fill="1" layer="-1.00" shape="352.298901,1322.794844 352.625754,1318.705955 350.445306,1318.414917 351.131081,1312.950755 354.344783,1313.343932 354.516107,1312.061324 358.166335,1312.534951 358.122108,1313.859567 363.186010,1314.516883 361.962985,1324.074049 352.298901,1322.794844"/>
    <poly id="198381457" type="building.yes" color="255,230,230" fill="1" layer="-1.00" shape="250.709696,1323.493987 248.242437,1315.010252 255.120738,1313.028904 256.704545,1318.315126 257.582540,1321.234650 257.679804,1321.544215 253.724338,1322.678490 250.709696,1323.493987"/>
    <poly id="198381459" type="building.yes" color="255,230,230" fill="1" layer="-1.00" shape="206.342055,1333.017955 212.981206,1329.216907 212.369477,1328.072005 212.695365,1327.876510 215.298696,1332.920258 217.321833,1336.996470 213.601177,1339.372058 210.917811,1340.982011 206.342055,1333.017955"/>
    <poly id="198381460" type="building.yes" color="255,230,230" fill="1" layer="-1.00" shape="509.272717,1303.728367 504.274782,1301.779242 505.908285,1297.776068 503.343346,1296.836167 506.374909,1289.346123 514.049998,1292.232962 509.272717,1303.728367"/>
    <poly id="198381461" type="building.yes" color="255,230,230" fill="1" layer="-1.00" shape="180.190828,1349.571410 171.302690,1355.307677 176.778675,1363.743506 185.666803,1358.007249 180.190828,1349.571410"/>
    <poly id="198381465" type="building.yes" color="255,230,230" fill="1" layer="-1.00" shape="551.351169,1335.354706 551.997883,1336.498962 550.100385,1337.403699 549.824130,1336.908518 541.222132,1341.870993 535.845838,1333.121379 554.077219,1321.919351 554.222034,1322.150125 557.266474,1320.344193 561.133291,1326.520313 559.537209,1330.645101 551.351169,1335.354706"/>
    <poly id="198381466" type="building.yes" color="255,230,230" fill="1" layer="-1.00" shape="554.522452,1296.948531 558.411961,1287.406078 559.736364,1288.047644 558.766010,1290.447122 562.316128,1291.901755 563.509865,1289.086328 566.410908,1290.353411 565.245654,1293.190529 566.908835,1293.936718 564.081113,1300.733059 554.522452,1296.948531"/>
    <poly id="198381468" type="building.yes" color="255,230,230" fill="1" layer="-1.00" shape="371.076525,1324.107039 372.224409,1316.086452 376.895164,1316.729227 377.124820,1315.200751 381.029238,1315.758411 380.813824,1317.297732 381.243118,1317.367199 380.095221,1325.387784 378.167669,1325.114033 371.350888,1324.146165 371.076525,1324.107039"/>
    <poly id="198381473" type="building.yes" color="255,230,230" fill="1" layer="-1.00" shape="500.443968,1359.542892 500.755635,1357.901580 502.535508,1348.467058 518.064831,1351.211518 515.772227,1362.769603 500.443968,1359.542892"/>
    <poly id="198381474" type="building.yes" color="255,230,230" fill="1" layer="-1.00" shape="312.693105,1318.275242 313.748564,1309.121806 314.233525,1309.167929 314.988587,1308.318847 317.474767,1308.459273 317.959810,1309.584419 323.288898,1310.169759 322.824427,1314.394833 324.680555,1314.603218 324.405734,1318.123769 322.458226,1317.906050 322.276804,1319.389088 312.693105,1318.275242"/>
    <poly id="198381478" type="building.yes" color="255,230,230" fill="1" layer="-1.00" shape="525.103036,1315.766585 523.200911,1320.742785 519.681459,1319.421067 518.864163,1321.394852 518.554896,1321.723490 518.209480,1321.997215 517.702338,1322.251852 517.017708,1322.398719 516.294104,1322.346116 515.572948,1322.059863 515.173939,1321.745066 514.851417,1321.395403 514.619624,1321.021719 514.428386,1320.569374 514.332500,1319.970555 514.353814,1319.625297 517.157596,1312.684783 514.349238,1311.493783 515.814818,1307.872108 518.642911,1308.995979 522.677931,1299.005696 529.272021,1301.502095 530.536734,1298.729769 533.887893,1300.054783 526.906251,1316.498901 525.103036,1315.766585"/>
    <poly id="198381479" type="building.hotel" color="255,230,230" fill="1" layer="-1.00" shape="276.705658,1235.605993 276.724125,1235.116177 269.600518,1234.966498 269.574821,1235.445331 261.707210,1235.276866 261.725676,1234.787050 258.090020,1234.702542 250.877656,1236.467949 250.992433,1236.955154 243.340015,1238.818186 243.218441,1238.342238 235.936177,1240.120159 232.464492,1225.849406 233.427678,1225.596927 232.346009,1221.235284 252.584965,1216.188891 253.652810,1220.561933 256.550038,1219.837732 262.038601,1219.963806 262.063862,1219.462733 269.945741,1219.642044 269.927493,1220.142979 277.023286,1220.304328 277.041535,1219.803393 284.930208,1219.971469 284.904945,1220.472542 292.267440,1220.639812 292.285473,1220.127757 300.174143,1220.295857 300.149314,1220.819170 307.638037,1220.983989 307.310738,1235.796384 299.815023,1235.631702 299.796554,1236.121518 291.921715,1235.942025 291.940184,1235.452209 284.584941,1235.295922 284.559678,1235.796995 276.705658,1235.605993"/>
    <poly id="198381480" type="building.yes" color="255,230,230" fill="1" layer="-1.00" shape="330.198777,1325.207547 330.959688,1316.415848 331.521787,1316.460463 337.522990,1316.977039 341.809625,1317.349204 341.625927,1319.432980 342.750997,1319.566691 342.351538,1324.246572 341.212880,1324.135375 341.027223,1326.119074 330.198777,1325.207547"/>
    <poly id="198381482" type="building.yes" color="255,230,230" fill="1" layer="-1.00" shape="229.000968,1298.267531 227.766514,1294.342717 229.084282,1293.927553 227.926929,1290.357194 228.400740,1290.192173 223.885515,1275.652653 223.320319,1275.808342 222.420389,1272.844757 220.321335,1273.486591 217.528844,1264.519789 238.174949,1258.063734 240.981432,1267.030272 238.352676,1267.849337 243.803717,1285.396249 244.277747,1285.242349 245.393232,1288.824655 246.703336,1288.376274 247.931417,1292.334588 239.355291,1295.027777 239.130748,1294.309120 237.345745,1294.866925 237.563276,1295.585720 229.000968,1298.267531"/>
    <poly id="198381483" type="building.yes" color="255,230,230" fill="1" layer="-1.00" shape="269.855896,1288.111773 269.968668,1288.854869 261.105608,1290.152023 260.486115,1286.103914 261.849884,1285.888088 261.229697,1282.162588 261.712265,1282.086390 260.004754,1270.128214 254.205602,1270.976014 252.845765,1261.725274 280.434654,1257.647379 281.780634,1266.909520 276.527159,1267.679862 276.966616,1270.774838 276.407125,1270.863666 277.731679,1279.748011 278.228491,1279.682660 278.771309,1283.398553 280.142528,1283.204834 280.720147,1287.264889 271.843274,1288.573419 271.730502,1287.830323 269.855896,1288.111773"/>
    <poly id="198381484" type="building.yes" color="255,230,230" fill="1" layer="-1.00" shape="305.220974,1286.351196 305.241665,1285.616609 303.248322,1285.566654 303.213823,1286.312634 294.307325,1286.108847 294.375320,1282.058395 295.786394,1282.108627 295.846244,1278.358681 296.337133,1278.349067 296.698193,1263.113297 296.129510,1263.091063 296.208569,1259.963683 290.839702,1259.857477 291.042462,1250.509382 318.877377,1251.110062 318.681798,1260.469138 312.877709,1260.349184 312.444762,1278.723314 312.942881,1278.724684 312.868993,1282.474904 314.237774,1282.514845 314.113445,1286.555276 305.220974,1286.351196"/>
    <poly id="198381485" type="amenity.social_facility" color="237,199,199" fill="1" layer="-1.00" shape="317.017503,1290.480788 326.413362,1263.365721 341.240037,1266.034426 359.388390,1217.979677 266.637483,1184.343787 211.320222,1223.360453 198.469139,1275.672513 184.296487,1293.125771 158.343145,1303.679633 147.495265,1310.366539 143.269179,1334.899914 157.999697,1349.839714 213.078040,1313.040764 266.913865,1293.709140 317.017503,1290.480788"/>
    <poly id="198381492" type="amenity.parking" color="184,184,179" fill="1" layer="-1.00" shape="584.652407,1343.959367 593.987182,1330.895553 565.875444,1314.658555 559.537202,1320.589059 567.518374,1330.889664 584.652407,1343.959367"/>
    <poly id="198381493" type="amenity.parking" color="184,184,179" fill="1" layer="-1.00" shape="552.253529,1348.507825 563.805630,1357.381543 575.828084,1354.421352 582.016115,1350.140143 584.652407,1343.959367 567.518374,1330.889664 548.323420,1343.400847 549.411745,1345.604373 552.253529,1348.507825"/>
    <poly id="198494798" type="amenity.parking" color="184,184,179" fill="1" layer="-1.00" shape="464.506181,1339.521533 483.130608,1343.050792 484.708441,1334.765980 480.730011,1334.009458 466.084203,1331.247834 464.506181,1339.521533"/>
    <poly id="199017563" type="building.yes" color="255,230,230" fill="1" layer="-1.00" shape="1242.703454,1396.002287 1241.810278,1394.440023 1239.687533,1395.671467 1238.335522,1393.239319 1236.543121,1394.141762 1235.019788,1391.557205 1236.816613,1390.521189 1234.926901,1387.131697 1243.199214,1382.143419 1243.525134,1382.671042 1246.306291,1387.533844 1248.144103,1390.779737 1246.180702,1391.907971 1247.104300,1393.592008 1242.703454,1396.002287"/>
    <poly id="199017600" type="building.yes" color="255,230,230" fill="1" layer="-1.00" shape="1261.145244,1385.099055 1261.746698,1386.088538 1257.521583,1388.517642 1255.071642,1384.093365 1253.627705,1384.877802 1252.343988,1382.711300 1253.806807,1381.815257 1252.178400,1378.876769 1257.512258,1376.103558 1257.344930,1375.795335 1260.199474,1374.316101 1264.917999,1382.856711 1261.145244,1385.099055"/>
    <poly id="243407430" type="amenity.place_of_worship" color="237,199,199" fill="1" layer="-1.00" shape="1061.966627,1382.381349 1062.411563,1382.895524 1062.487884,1384.295653 1061.653416,1385.034927 1060.427519,1385.125498 1059.379481,1383.899992 1059.306954,1383.055985 1059.750665,1382.424421 1059.721918,1380.945501 1054.027736,1381.056185 1053.249153,1381.783250 1052.525539,1381.007519 1053.413297,1380.122597 1053.314178,1374.662685 1052.484510,1373.844520 1053.098780,1372.964915 1053.857025,1373.717725 1059.886737,1373.544899 1060.811505,1372.759374 1061.387639,1373.526849 1065.560106,1373.445749 1065.502713,1370.131941 1067.774996,1370.098900 1069.945243,1367.342486 1070.878994,1367.379958 1070.928715,1363.441129 1072.555630,1363.409510 1074.113672,1361.999865 1074.100327,1359.508369 1075.411677,1359.482884 1075.242953,1356.215735 1080.277820,1354.304691 1084.010574,1354.699355 1084.285402,1356.206866 1087.824630,1357.472959 1090.557981,1359.867104 1103.952202,1359.617975 1105.452396,1361.368652 1109.575784,1361.288542 1109.646211,1364.913566 1108.082410,1364.943948 1108.193150,1367.033090 1107.184223,1367.820241 1107.232300,1370.655902 1101.720218,1370.751872 1101.649668,1366.759761 1100.239675,1365.318802 1094.910129,1365.422356 1094.925254,1366.200735 1095.879963,1367.316823 1096.031657,1375.845910 1094.979775,1375.866349 1094.998042,1377.167491 1096.960315,1379.231781 1097.025899,1382.968138 1094.655662,1383.014193 1092.638152,1384.966707 1091.039295,1384.997776 1091.014662,1383.730129 1089.808506,1383.753567 1086.995558,1385.565805 1087.015339,1386.944785 1076.159725,1387.144623 1075.058757,1387.166020 1075.032608,1385.820536 1074.992844,1383.774510 1073.520212,1383.803130 1073.532433,1384.792920 1069.654285,1384.857170 1069.632122,1383.355873 1067.717750,1381.591008 1065.438675,1381.635305 1065.388749,1379.066653 1061.903515,1379.134395 1061.966627,1382.381349"/>
    <poly id="243407430#1" type="building.church" color="255,230,230" fill="1" layer="-1.00" shape="1061.966627,1382.381349 1062.411563,1382.895524 1062.487884,1384.295653 1061.653416,1385.034927 1060.427519,1385.125498 1059.379481,1383.899992 1059.306954,1383.055985 1059.750665,1382.424421 1059.721918,1380.945501 1054.027736,1381.056185 1053.249153,1381.783250 1052.525539,1381.007519 1053.413297,1380.122597 1053.314178,1374.662685 1052.484510,1373.844520 1053.098780,1372.964915 1053.857025,1373.717725 1059.886737,1373.544899 1060.811505,1372.759374 1061.387639,1373.526849 1065.560106,1373.445749 1065.502713,1370.131941 1067.774996,1370.098900 1069.945243,1367.342486 1070.878994,1367.379958 1070.928715,1363.441129 1072.555630,1363.409510 1074.113672,1361.999865 1074.100327,1359.508369 1075.411677,1359.482884 1075.242953,1356.215735 1080.277820,1354.304691 1084.010574,1354.699355 1084.285402,1356.206866 1087.824630,1357.472959 1090.557981,1359.867104 1103.952202,1359.617975 1105.452396,1361.368652 1109.575784,1361.288542 1109.646211,1364.913566 1108.082410,1364.943948 1108.193150,1367.033090 1107.184223,1367.820241 1107.232300,1370.655902 1101.720218,1370.751872 1101.649668,1366.759761 1100.239675,1365.318802 1094.910129,1365.422356 1094.925254,1366.200735 1095.879963,1367.316823 1096.031657,1375.845910 1094.979775,1375.866349 1094.998042,1377.167491 1096.960315,1379.231781 1097.025899,1382.968138 1094.655662,1383.014193 1092.638152,1384.966707 1091.039295,1384.997776 1091.014662,1383.730129 1089.808506,1383.753567 1086.995558,1385.565805 1087.015339,1386.944785 1076.159725,1387.144623 1075.058757,1387.166020 1075.032608,1385.820536 1074.992844,1383.774510 1073.520212,1383.803130 1073.532433,1384.792920 1069.654285,1384.857170 1069.632122,1383.355873 1067.717750,1381.591008 1065.438675,1381.635305 1065.388749,1379.066653 1061.903515,1379.134395 1061.966627,1382.381349"/>
    <poly id="258763888" type="building.public" color="255,230,230" fill="1" layer="-1.00" shape="685.752243,1281.894465 745.452043,1284.011662 748.730334,1188.048380 689.594577,1186.131461 685.752243,1281.894465"/>
    <poly id="258763888#1" type="leisure.sports_centre" color="207,245,201" fill="1" layer="-2.00" shape="685.752243,1281.894465 745.452043,1284.011662 748.730334,1188.048380 689.594577,1186.131461 685.752243,1281.894465"/>
    <poly id="258763888#2" type="sport.multi" color="79,230,125" fill="1" layer="-2.00" shape="685.752243,1281.894465 745.452043,1284.011662 748.730334,1188.048380 689.594577,1186.131461 685.752243,1281.894465"/>
    <poly id="264948111" type="building.yes" color="255,230,230" fill="1" layer="-1.00" shape="747.171384,1345.927290 750.161129,1336.636137 761.019137,1340.150963 757.939296,1349.499485 747.171384,1345.927290"/>
    <poly id="264948258" type="building.yes" color="255,230,230" fill="1" layer="-1.00" shape="699.513729,1346.133679 668.240360,1335.742257 656.892738,1369.691466 688.165930,1380.082817 699.513729,1346.133679"/>
    <poly id="264951424" type="building.yes" color="255,230,230" fill="1" layer="-1.00" shape="565.097752,1273.047963 565.548986,1271.726525 562.804168,1270.556506 566.365884,1262.188477 574.616326,1265.798348 571.307491,1274.183679 569.128686,1273.258452 568.590693,1274.448098 565.097752,1273.047963"/>