<?xml version="1.0" encoding="UTF-8"?>

<!-- generated on Wed Apr  3 11:39:43 2019 by Eclipse SUMO duarouter Version 1.1.0
<configuration xmlns:xsi="http://www.w3.org/2001/XMLSchema-instance" xsi:noNamespaceSchemaLocation="http://sumo.dlr.de/xsd/duarouterConfiguration.xsd">

    <input>
        <net-file value="/home/nils/Projekte/AVS/2019-04-03-11-39-40/osm.net.xml"/>
        <route-files value="/home/nils/Projekte/AVS/2019-04-03-11-39-40/osm.passenger.trips.xml"/>
    </input>

    <output>
        <output-file value="/home/nils/Projekte/AVS/2019-04-03-11-39-40/osm.passenger.rou.xml"/>
        <alternatives-output value="/home/nils/Projekte/AVS/2019-04-03-11-39-40/osm.passenger.rou.alt.xml"/>
    </output>

    <time>
        <begin value="0"/>
        <end value="3600.0"/>
    </time>

    <report>
        <no-warnings value="true"/>
        <ignore-errors value="true"/>
        <no-step-log value="true"/>
    </report>

</configuration>
-->

<routes xmlns:xsi="http://www.w3.org/2001/XMLSchema-instance" xsi:noNamespaceSchemaLocation="http://sumo.dlr.de/xsd/routes_file.xsd">
    <vType id="veh_passenger" vClass="passenger"/>
    <vehicle id="veh1" type="veh_passenger" depart="0.40" departLane="best" departSpeed="max">
        <route edges="443443986#0 443443986#1 417396998 7981349#0 7981349#1 7981349#2 41974272#0 41974272#2"/>
    </vehicle>
    <vehicle id="veh5" type="veh_passenger" depart="1.98" departLane="best">
        <route edges="36990663#0 36990663#1 615624636 417356369#3 417356369#4 417356369#5 -7981375#1 -7981375#0 419034864"/>
    </vehicle>
    <vehicle id="veh6" type="veh_passenger" depart="2.37" departLane="best">
        <route edges="522923261#4 522923261#5 522923261#6 522923261#7 481235794#0 481235793#0 33808568#0 33808568#1 33808568#2 33808568#3 198381415 -198381413#0"/>
    </vehicle>
    <vehicle id="veh9" type="veh_passenger" depart="3.56" departLane="best">
        <route edges="-295064775#0 295064775#0 295064775#1 -7981349#0 -417396998 -473401240 -443443986#0"/>
    </vehicle>
    <vehicle id="veh19" type="veh_passenger" depart="7.52" departLane="best" departSpeed="max">
        <route edges="-41974272#2 -41974272#0 -7981349#2 -7981349#1 -7981349#0 7981362#0 7981362#1 7981362#2"/>
    </vehicle>
    <vehicle id="veh27" type="veh_passenger" depart="10.68" departLane="best" departSpeed="max">
        <route edges="-41974272#2 -41974272#0 -7981349#2 -7981349#1 -7981349#0 -417396998 -7981344#3 -7981344#2 -7981344#1"/>
    </vehicle>
    <vehicle id="veh33" type="veh_passenger" depart="13.05" departLane="best">
        <route edges="481235794#0 481235793#0 33808568#0 33808568#1 33808568#2 33808568#3 198381415 198381413#1 198381413#2"/>
    </vehicle>
    <vehicle id="veh34" type="veh_passenger" depart="13.45" departLane="best">
        <route edges="-198381413#0 -33808568#3 -33808568#2 -33808568#1 -33808568#0 -481235793#1 172482832#0"/>
    </vehicle>
    <vehicle id="veh50" type="veh_passenger" depart="19.78" departLane="best" departSpeed="max">
        <route edges="-198381413#2 36772004"/>
    </vehicle>
    <vehicle id="veh51" type="veh_passenger" depart="20.17" departLane="best" departSpeed="max">
        <route edges="-198381413#2 36772004 7981402#4 7981402#5 7981402#6 481235792 -481235794#1 481235794#0"/>
    </vehicle>
    <vehicle id="veh52" type="veh_passenger" depart="20.57" departLane="best">
        <route edges="-7981375#1 -7981375#0 419034864"/>
    </vehicle>
    <vehicle id="veh55" type="veh_passenger" depart="21.75" departLane="best" departSpeed="max">
        <route edges="-41907106 -41907104#0 522923261#3 522923261#4 522923261#5 522923261#6 522923261#7 481235794#0 -481235792 -7981402#6 -7981402#5 -7981402#4 -7981402#2 -7981402#1"/>
    </vehicle>
    <vehicle id="veh57" type="veh_passenger" depart="22.55" departLane="best" departSpeed="max">
        <route edges="-7981349#3 -7981349#2 -7981349#1 -7981349#0 193140112#0 193140112#1 193140112#2 193140112#3 193140112#4 193140112#5 193140112#6 417356369#2"/>
    </vehicle>
    <vehicle id="veh59" type="veh_passenger" depart="23.34" departLane="best">
        <route edges="-522923261#4 -522923261#3 41907104#0 41907104#2 41907104#3 41907104#4"/>
    </vehicle>
    <vehicle id="veh68" type="veh_passenger" depart="26.90" departLane="best" departSpeed="max">
        <route edges="443443986#0 443443986#1 417396998 7981349#0 7981349#1 7981349#2 41974272#0 41974272#2"/>
    </vehicle>
    <vehicle id="veh76" type="veh_passenger" depart="30.06" departLane="best">
        <route edges="7981396 295064775#0 295064775#1 7981349#1 7981349#2 7981349#3"/>
    </vehicle>
    <vehicle id="veh77" type="veh_passenger" depart="30.46" departLane="best" departSpeed="max">
        <route edges="-7981395#1 -7981395#0 -7981362#1 -7981362#0 193140112#0 193140112#1 193140112#2 193140112#3 193140112#4 193140112#5 193140112#6 417356369#2 -615624636"/>
    </vehicle>
    <vehicle id="veh83" type="veh_passenger" depart="32.83" departLane="best">
        <route edges="193140112#5 193140112#6 417356369#2 417356369#3 417356369#4 417356369#5 417356369#6 439914190#0 439914190#1 7981349#0 -295064775#1 41974274"/>
    </vehicle>
    <vehicle id="veh97" type="veh_passenger" depart="38.37" departLane="best" departSpeed="max">
        <route edges="-41974272#2 -41974272#0 -7981349#2 -7981349#1 -7981349#0 7981362#0 7981362#1"/>
    </vehicle>
    <vehicle id="veh102" type="veh_passenger" depart="40.34" departLane="best">
        <route edges="417356369#4 417356369#5 417356369#6 439914190#0 439914190#1 7981362#0 7981362#1 7981362#2"/>
    </vehicle>
    <vehicle id="veh109" type="veh_passenger" depart="43.11" departLane="best">
        <route edges="443443986#1 417396998 193140112#0 193140112#1 193140112#2 193140112#3 193140112#4 193140112#5 193140112#6 417356369#2 417356369#3 417356369#4 417356369#5 -7981375#1 -7981375#0 419034864"/>
    </vehicle>
    <vehicle id="veh112" type="veh_passenger" depart="44.30" departLane="best" departSpeed="max">
        <route edges="7981344#0 7981344#2 7981344#3 417396998 193140112#0 193140112#1 193140112#2 193140112#3 193140112#4 193140112#5 193140112#6 417356369#2 417356369#3 417356369#4 417356369#5 -7981375#1 -7981375#0 419034864"/>
    </vehicle>
    <vehicle id="veh117" type="veh_passenger" depart="46.28" departLane="best">
        <route edges="-41974272#0 -7981349#2 -7981349#1 -7981349#0 -417396998 -473401240 -443443986#0"/>
    </vehicle>
    <vehicle id="veh128" type="veh_passenger" depart="50.63" departLane="best" departSpeed="max">
        <route edges="-7981362#2 -7981362#1 -7981362#0 -417396998 -7981384#0"/>
    </vehicle>
    <vehicle id="veh138" type="veh_passenger" depart="54.58" departLane="best">
        <route edges="443443986#1 417396998 7981349#0 7981349#1 7981349#2 41974272#0 41974272#2"/>
    </vehicle>
    <vehicle id="veh143" type="veh_passenger" depart="56.56" departLane="best">
        <route edges="-33808568#2 33808568#2 33808568#3 198381415 198381413#1 198381413#2"/>
    </vehicle>
    <vehicle id="veh149" type="veh_passenger" depart="58.94" departLane="best" departSpeed="max">
        <route edges="-7981349#3 -7981349#2 -7981349#1 -7981349#0 193140112#0 193140112#1 193140112#2 193140112#3 193140112#4 193140112#5 193140112#6 417356369#2 -615624636"/>
    </vehicle>
    <vehicle id="veh150" type="veh_passenger" depart="59.33" departLane="best">
        <route edges="522923261#0 522923261#1 522923261#2 522923261#3 522923261#4 522923261#5 522923261#6 522923261#7 -522923261#7"/>
    </vehicle>
    <vehicle id="veh159" type="veh_passenger" depart="62.89" departLane="best" departSpeed="max">
        <route edges="-7981395#1 -7981395#0 -7981362#1 -7981362#0 -417396998 -7981344#3 -7981344#2 -7981344#1"/>
    </vehicle>
    <vehicle id="veh170" type="veh_passenger" depart="67.24" departLane="best">
        <route edges="439914190#1 7981349#0 -295064775#1 -295064775#0 36780345"/>
    </vehicle>
    <vehicle id="veh173" type="veh_passenger" depart="68.43" departLane="best">
        <route edges="-7981375#1 7981375#1 417356369#6 439914190#0 439914190#1 -417396998 -7981344#3 -7981344#2"/>
    </vehicle>
    <vehicle id="veh192" type="veh_passenger" depart="75.94" departLane="best" departSpeed="max">
        <route edges="-41907107 -41907104#2 -41907104#0 522923261#3 522923261#4 522923261#5 522923261#6 522923261#7 481235794#0 -481235792 -7981402#6 -7981402#5 -7981402#4 -7981402#2 -7981402#1"/>
    </vehicle>
    <vehicle id="veh200" type="veh_passenger" depart="79.11" departLane="best" departSpeed="max">
        <route edges="-172482832#1 -481235794#1 -522923261#7 -522923261#6 -522923261#5 -522923261#4 -522923261#3 -522923261#2"/>
    </vehicle>
    <vehicle id="veh213" type="veh_passenger" depart="84.25" departLane="best" departSpeed="max">
        <route edges="443443986#0 443443986#1 417396998 7981362#0 7981362#1 7981395#0 7981395#1"/>
    </vehicle>
    <vehicle id="veh233" type="veh_passenger" depart="92.16" departLane="best">
        <route edges="191052495#0 191052495#1 7981402#4 7981402#5 7981402#6 481235792 -481235794#1 481235794#0"/>
    </vehicle>
    <vehicle id="veh236" type="veh_passenger" depart="93.35" departLane="best" departSpeed="max">
        <route edges="-41974273 -41974272#0 -7981349#2 -7981349#1 -7981349#0 -417396998 -473401240 -443443986#0"/>
    </vehicle>
    <vehicle id="veh237" type="veh_passenger" depart="93.74" departLane="best">
        <route edges="-41907104#2 -41907104#0 522923261#3 522923261#4 522923261#5 522923261#6 305134499 -264951423#0"/>
    </vehicle>
    <vehicle id="veh244" type="veh_passenger" depart="96.51" departLane="best">
        <route edges="-41907104#4 -41907104#3 -41907104#2 -41907104#0 522923261#3 522923261#4 522923261#5 522923261#6 522923261#7 481235794#0 481235793#0 33808568#0 33808568#1 -33808568#1"/>
    </vehicle>
    <vehicle id="veh247" type="veh_passenger" depart="97.70" departLane="best" departSpeed="max">
        <route edges="-198381413#2 36772004 7981402#4 7981402#5 7981402#6 481235792 -481235794#1 -522923261#7 -522923261#6 -522923261#5 -522923261#4 -522923261#3 41907104#0 41907104#2 41907107"/>
    </vehicle>
    <vehicle id="veh248" type="veh_passenger" depart="98.09" departLane="best" departSpeed="max">
        <route edges="-172482832#1 -481235794#1 -522923261#7 -522923261#6 -522923261#5 -522923261#4 -522923261#3 -522923261#2 -522923261#1"/>
    </vehicle>
    <vehicle id="veh255" type="veh_passenger" depart="100.86" departLane="best" departSpeed="max">
        <route edges="443443986#0 443443986#1 417396998 7981362#0 7981362#1 7981362#2"/>
    </vehicle>
    <vehicle id="veh258" type="veh_passenger" depart="102.05" departLane="best" departSpeed="max">
        <route edges="-41907103#1 -264951423#1 -305134499 -522923261#6 -522923261#5 -522923261#4 -522923261#3 41907104#0 41907104#2 41907104#3 -41907104#3"/>
    </vehicle>
    <vehicle id="veh262" type="veh_passenger" depart="103.63" departLane="best">
        <route edges="481235793#0 -481235793#1 -481235794#1 -522923261#7 -522923261#6 -522923261#5 -522923261#4 -522923261#3 41907104#0 41907104#2 41907107"/>
    </vehicle>
    <vehicle id="veh263" type="veh_passenger" depart="104.03" departLane="best">
        <route edges="417356369#3 417356369#4 417356369#5 417356369#6 439914190#0 439914190#1 7981362#0 7981362#1"/>
    </vehicle>
    <vehicle id="veh264" type="veh_passenger" depart="104.42" departLane="best">
        <route edges="-7981349#2 -7981349#1 -7981349#0 193140112#0 193140112#1 193140112#2 193140112#3 193140112#4 193140112#5 193140112#6 417356369#2 417356369#3 417356369#4 417356369#5 -7981375#1 -7981375#0 419034864"/>
    </vehicle>
    <vehicle id="veh267" type="veh_passenger" depart="105.61" departLane="best" departSpeed="max">
        <route edges="-45851615"/>
    </vehicle>
    <vehicle id="veh269" type="veh_passenger" depart="106.40" departLane="best">
        <route edges="7981375#1 417356369#6 439914190#0 439914190#1 7981349#0 -295064775#1 -295064775#0 36780345"/>
    </vehicle>
    <vehicle id="veh270" type="veh_passenger" depart="106.80" departLane="best" departSpeed="max">
        <route edges="-7981395#1 -7981395#0 -7981362#1 -7981362#0 -417396998 -7981344#3 -41974271 41974269#0 -41974269#0"/>
    </vehicle>
    <vehicle id="veh271" type="veh_passenger" depart="107.19" departLane="best" departSpeed="max">
        <route edges="-172482832#1 481235793#0 33808568#0 33808568#1 33808568#2 33808568#3 198381415 198381413#1 198381413#2"/>
    </vehicle>
    <vehicle id="veh277" type="veh_passenger" depart="109.56" departLane="best" departSpeed="max">
        <route edges="-7981395#1 -7981395#0 -7981362#1 -7981362#0 -417396998 -473401240 -443443986#0"/>
    </vehicle>
    <vehicle id="veh287" type="veh_passenger" depart="113.52" departLane="best">
        <route edges="193140112#3 193140112#4 193140112#5 193140112#6 417356369#2 417356369#3 417356369#4 417356369#5 417356369#6 439914190#0 439914190#1 7981349#0 7981349#1 7981349#2 7981349#3"/>
    </vehicle>
    <vehicle id="veh289" type="veh_passenger" depart="114.31" departLane="best">
        <route edges="295064775#1 -7981349#0 -417396998 -7981344#3 -7981344#2 -7981344#1"/>
    </vehicle>
    <vehicle id="veh291" type="veh_passenger" depart="115.10" departLane="best">
        <route edges="193140112#4 193140112#5 193140112#6 417356369#2 417356369#3 417356369#4 417356369#5 417356369#6 439914190#0 439914190#1 -417396998 -473401240 -443443986#0"/>
    </vehicle>
    <vehicle id="veh299" type="veh_passenger" depart="118.27" departLane="best" departSpeed="max">
        <route edges="27904597#0 522923261#0 522923261#1 522923261#2 522923261#3 522923261#4 522923261#5 522923261#6 522923261#7 481235794#0 -481235792 -7981402#6 7981402#6"/>
    </vehicle>
    <vehicle id="veh302" type="veh_passenger" depart="119.45" departLane="best">
        <route edges="193140112#4 193140112#5 193140112#6 417356369#2 417356369#3 417356369#4 417356369#5 -7981375#1 -7981375#0 419034864"/>
    </vehicle>
    <vehicle id="veh315" type="veh_passenger" depart="124.59" departLane="best" departSpeed="max">
        <route edges="443443986#0 443443986#1 417396998 193140112#0 193140112#1 193140112#2 193140112#3 193140112#4 193140112#5"/>
    </vehicle>
    <vehicle id="veh326" type="veh_passenger" depart="128.95" departLane="best" departSpeed="max">
        <route edges="-172482832#1 -481235794#1 -522923261#7 -522923261#6 -522923261#5 -522923261#4 -522923261#3 -522923261#2 -522923261#1 -522923261#0 522923262#1"/>
    </vehicle>
    <vehicle id="veh328" type="veh_passenger" depart="129.74" departLane="best" departSpeed="max">
        <route edges="-419034864 7981375#0 7981375#1 417356369#6"/>
    </vehicle>
    <vehicle id="veh329" type="veh_passenger" depart="130.13" departLane="best" departSpeed="max">
        <route edges="264951423#0 -305134499 -522923261#6 -522923261#5 -522923261#4 -522923261#3 -522923261#2 -522923261#1 -522923261#0 522923262#1"/>
    </vehicle>
    <vehicle id="veh332" type="veh_passenger" depart="131.32" departLane="best" departSpeed="max">
        <route edges="-41974272#2 -41974272#0 -7981349#2 -7981349#1 -7981349#0 -417396998 -7981344#3 -7981344#2 -7981344#1"/>
    </vehicle>
    <vehicle id="veh333" type="veh_passenger" depart="131.71" departLane="best" departSpeed="max">
        <route edges="7981344#0 7981344#2 7981344#3 417396998 7981349#0 7981349#1 7981349#2 41974272#0 41974272#2"/>
    </vehicle>
    <vehicle id="veh334" type="veh_passenger" depart="132.11" departLane="best">
        <route edges="-522923261#7 -522923261#6 -522923261#5 -522923261#4 -522923261#3 41907104#0 41907104#2 41907104#3"/>
    </vehicle>
    <vehicle id="veh335" type="veh_passenger" depart="132.51" departLane="best">
        <route edges="33808568#2 33808568#3 198381415 198381413#1 198381413#2"/>
    </vehicle>
    <vehicle id="veh336" type="veh_passenger" depart="132.90" departLane="best">
        <route edges="-41974272#0 -7981349#2 -7981349#1 -7981349#0 193140112#0 193140112#1 193140112#2 193140112#3 193140112#4 193140112#5 193140112#6 417356369#2 -615624636 615624636"/>
    </vehicle>
    <vehicle id="veh343" type="veh_passenger" depart="135.67" departLane="best" departSpeed="max">
        <route edges="-172482832#1 -481235794#1 -522923261#7 -522923261#6 -522923261#5 -522923261#4 -522923261#3 41907104#0 41907106"/>
    </vehicle>
    <vehicle id="veh346" type="veh_passenger" depart="136.86" departLane="best">
        <route edges="33808568#1 -33808568#1 -33808568#0 -481235793#1 -481235794#1 -522923261#7 -522923261#6 -522923261#5 -522923261#4 -522923261#3 41907104#0 41907104#2 41907107"/>
    </vehicle>
    <vehicle id="veh353" type="veh_passenger" depart="139.63" departLane="best">
        <route edges="172496439#1 172481042 36990663#0 36990663#1 615624636 417356369#3 417356369#4 417356369#5 417356369#6 439914190#0 439914190#1 7981349#0 7981349#1 7981349#2 7981349#3"/>
    </vehicle>
    <vehicle id="veh360" type="veh_passenger" depart="142.39" departLane="best" departSpeed="max">
        <route edges="443443986#0 443443986#1 417396998 7981362#0 7981362#1 7981395#0 7981395#1"/>
    </vehicle>
    <vehicle id="veh363" type="veh_passenger" depart="143.58" departLane="best" departSpeed="max">
        <route edges="-7981362#2 -7981362#1 -7981362#0 7981349#0 7981349#1 7981349#2 41974272#0 41974272#2"/>
    </vehicle>
    <vehicle id="veh368" type="veh_passenger" depart="145.56" departLane="best" departSpeed="max">
        <route edges="-41907107 -41907104#2 -41907104#0 522923261#3 522923261#4 522923261#5 522923261#6 305134499 264951423#1 -41907103#0"/>
    </vehicle>
    <vehicle id="veh371" type="veh_passenger" depart="146.74" departLane="best" departSpeed="max">
        <route edges="-419034864 7981375#0 7981375#1 417356369#6 439914190#0 439914190#1 7981362#0 7981362#1 7981362#2"/>
    </vehicle>
    <vehicle id="veh377" type="veh_passenger" depart="149.12" departLane="best">
        <route edges="-7981344#3 7981344#3 -473401240 -443443986#0"/>
    </vehicle>
    <vehicle id="veh378" type="veh_passenger" depart="149.51" departLane="best" departSpeed="max">
        <route edges="-7981395#1 -7981395#0 -7981362#1 -7981362#0 193140112#0 193140112#1 193140112#2 193140112#3 193140112#4"/>
    </vehicle>
    <vehicle id="veh380" type="veh_passenger" depart="150.30" departLane="best">
        <route edges="193140112#1 193140112#2 193140112#3 193140112#4 193140112#5 193140112#6 417356369#2 417356369#3 417356369#4 417356369#5 417356369#6 439914190#0 439914190#1 7981362#0 7981362#1 7981395#0 7981395#1"/>
    </vehicle>
    <vehicle id="veh386" type="veh_passenger" depart="152.68" departLane="best" departSpeed="max">
        <route edges="-198381413#2 36772004 7981402#4 7981402#5 7981402#6 481235792 -481235794#1 -522923261#7 -522923261#6 -522923261#5 -522923261#4 -522923261#3 -522923261#2 -522923261#1 -522923261#0 522923261#0"/>
    </vehicle>
    <vehicle id="veh389" type="veh_passenger" depart="153.86" departLane="best" departSpeed="max">
        <route edges="-419034864 7981375#0 7981375#1 417356369#6 439914190#0 439914190#1 7981349#0"/>
    </vehicle>
    <vehicle id="veh390" type="veh_passenger" depart="154.26" departLane="best" departSpeed="max">
        <route edges="-105702353 653926100#0 653926100#1 653926100#2 653926100#3 653926100#4 653926099#0 618924009#4 647751270#0"/>
    </vehicle>
    <vehicle id="veh399" type="veh_passenger" depart="157.82" departLane="best" departSpeed="max">
        <route edges="-7981395#1 -7981395#0 -7981362#1 -7981362#0 193140112#0 193140112#1 193140112#2"/>
    </vehicle>
    <vehicle id="veh402" type="veh_passenger" depart="159.01" departLane="best" departSpeed="max">
        <route edges="-198381413#2 36772004 7981402#4 7981402#5 7981402#6 481235792 -481235794#1 -522923261#7 -522923261#6 -522923261#5 -522923261#4 -522923261#3 41907104#0 41907106"/>
    </vehicle>
    <vehicle id="veh405" type="veh_passenger" depart="160.19" departLane="best">
        <route edges="-522923261#0 522923261#0 522923261#1 522923261#2 522923261#3 522923261#4 522923261#5 522923261#6 522923261#7 481235794#0 -481235792 -7981402#6 -7981402#5 7981402#5"/>
    </vehicle>
    <vehicle id="veh411" type="veh_passenger" depart="162.57" departLane="best">
        <route edges="-7981344#3 7981344#3 -473401240 -443443986#0"/>
    </vehicle>
    <vehicle id="veh419" type="veh_passenger" depart="165.73" departLane="best">
        <route edges="439914190#1 7981362#0 7981362#1 7981395#0 7981395#1"/>
    </vehicle>
    <vehicle id="veh423" type="veh_passenger" depart="167.31" departLane="best" departSpeed="max">
        <route edges="264951423#0 -305134499 -522923261#6 -522923261#5 -522923261#4 -522923261#3 -522923261#2 -522923261#1 -522923261#0 522923262#1"/>
    </vehicle>
    <vehicle id="veh425" type="veh_passenger" depart="168.10" departLane="best">
        <route edges="522923261#7 -522923261#7 -522923261#6 -522923261#5 -522923261#4 -522923261#3 41907104#0 41907104#2 41907107"/>
    </vehicle>
    <vehicle id="veh429" type="veh_passenger" depart="169.69" departLane="best">
        <route edges="-522923261#5 522923261#5 522923261#6 522923261#7 481235794#0 -481235792 -7981402#6 -7981402#5 -7981402#4 -191052495#1"/>
    </vehicle>
    <vehicle id="veh436" type="veh_passenger" depart="172.45" departLane="best" departSpeed="max">
        <route edges="-198381413#2 -198381413#1 -198381413#0 -33808568#3 -33808568#2 -33808568#1"/>
    </vehicle>
    <vehicle id="veh437" type="veh_passenger" depart="172.85" departLane="best" departSpeed="max">
        <route edges="-41907103#1 -264951423#1 -305134499 -522923261#6 -522923261#5 -522923261#4 -522923261#3 41907104#0 41907104#2 41907107"/>
    </vehicle>
    <vehicle id="veh440" type="veh_passenger" depart="174.04" departLane="best" departSpeed="max">
        <route edges="-7981349#3 -7981349#2 -7981349#1 -7981349#0 193140112#0 193140112#1 193140112#2 193140112#3 193140112#4 193140112#5 193140112#6 417356369#2 417356369#3 417356369#4 417356369#5 -7981375#1"/>
    </vehicle>
    <vehicle id="veh441" type="veh_passenger" depart="174.43" departLane="best">
        <route edges="41907104#0 -41907104#0 522923261#3 522923261#4 522923261#5 522923261#6 522923261#7 481235794#0 481235793#0 33808568#0 33808568#1 33808568#2 33808568#3 198381415 198381413#1 36772004"/>
    </vehicle>
    <vehicle id="veh444" type="veh_passenger" depart="175.62" departLane="best" departSpeed="max">
        <route edges="-41907107 -41907104#2 -41907104#0 522923261#3 522923261#4 522923261#5 522923261#6 522923261#7 481235794#0 481235793#0 -481235793#1"/>
    </vehicle>
    <vehicle id="veh447" type="veh_passenger" depart="176.81" departLane="best">
        <route edges="-41907104#0 522923261#3 522923261#4 522923261#5 522923261#6 522923261#7 481235794#0 172482832#0"/>
    </vehicle>
    <vehicle id="veh459" type="veh_passenger" depart="181.55" departLane="best">
        <route edges="-522923261#5 522923261#5 522923261#6 522923261#7 481235794#0 -481235792 -7981402#6 -7981402#5 -7981402#4"/>
    </vehicle>
    <vehicle id="veh464" type="veh_passenger" depart="183.53" departLane="best" departSpeed="max">
        <route edges="27904597#0 522923261#0 522923261#1 522923261#2 522923261#3 522923261#4 522923261#5 522923261#6 522923261#7 481235794#0"/>
    </vehicle>
    <vehicle id="veh468" type="veh_passenger" depart="185.11" departLane="best">
        <route edges="-7981362#1 -7981362#0 7981349#0 7981349#1 7981349#2 7981349#3"/>
    </vehicle>
    <vehicle id="veh472" type="veh_passenger" depart="186.69" departLane="best" departSpeed="max">
        <route edges="-198381413#2 36772004 7981402#4 7981402#5 7981402#6 481235792 -481235794#1 -522923261#7 305134499 264951423#1"/>
    </vehicle>
    <vehicle id="veh483" type="veh_passenger" depart="191.05" departLane="best" departSpeed="max">
        <route edges="-419034864 7981375#0 7981375#1 417356369#6 439914190#0 439914190#1 -417396998"/>
    </vehicle>
    <vehicle id="veh488" type="veh_passenger" depart="193.02" departLane="best" departSpeed="max">
        <route edges="-7981349#3 -7981349#2 -7981349#1 -7981349#0 193140112#0 193140112#1 193140112#2 193140112#3 193140112#4 193140112#5 193140112#6 417356369#2 417356369#3"/>
    </vehicle>
    <vehicle id="veh492" type="veh_passenger" depart="194.60" departLane="best" departSpeed="max">
        <route edges="443443986#0 443443986#1 417396998 7981349#0 7981349#1 7981349#2 41974272#0"/>
    </vehicle>
    <vehicle id="veh494" type="veh_passenger" depart="195.40" departLane="best">
        <route edges="7981396 295064775#0 295064775#1 7981349#1 7981349#2 41974272#0 41974273"/>
    </vehicle>
    <vehicle id="veh507" type="veh_passenger" depart="200.54" departLane="best">
        <route edges="52774437#3 52774437#4 52774437#5 52774437#6 52774437#7 52774437#8 52774437#9 52774437#10 52774437#11 52774437#12 653926100#0 653926100#1"/>
    </vehicle>
    <vehicle id="veh508" type="veh_passenger" depart="200.93" departLane="best" departSpeed="max">
        <route edges="-172482832#1 -481235792 -7981402#6 -7981402#5"/>
    </vehicle>
    <vehicle id="veh511" type="veh_passenger" depart="202.12" departLane="best" departSpeed="max">
        <route edges="-7981349#3 -7981349#2 -7981349#1 -7981349#0 193140112#0 193140112#1 193140112#2 193140112#3 193140112#4 193140112#5"/>
    </vehicle>
    <vehicle id="veh513" type="veh_passenger" depart="202.91" departLane="best" departSpeed="max">
        <route edges="-7981349#3 -7981349#2 -7981349#1 -7981349#0 193140112#0 193140112#1 193140112#2 193140112#3 193140112#4 193140112#5 193140112#6 417356369#2 417356369#3 417356369#4 417356369#5 -7981375#1"/>
    </vehicle>
    <vehicle id="veh516" type="veh_passenger" depart="204.10" departLane="best" departSpeed="max">
        <route edges="7981384#0 417396998 7981362#0 7981362#1 7981395#0 7981395#1"/>
    </vehicle>
    <vehicle id="veh517" type="veh_passenger" depart="204.49" departLane="best" departSpeed="max">
        <route edges="-7981362#2 -7981362#1 -7981362#0 193140112#0 193140112#1 193140112#2 193140112#3 193140112#4 193140112#5 193140112#6 417356369#2 417356369#3 417356369#4 417356369#5 -7981375#1 -7981375#0"/>
    </vehicle>
    <vehicle id="veh520" type="veh_passenger" depart="205.68" departLane="best">
        <route edges="522923261#2 522923261#3 522923261#4 522923261#5 522923261#6 522923261#7 481235794#0 481235793#0 -481235793#1"/>
    </vehicle>
    <vehicle id="veh526" type="veh_passenger" depart="208.05" departLane="best" departSpeed="max">
        <route edges="-7981349#3 -7981349#2 -7981349#1 -7981349#0 7981362#0 7981362#1 7981362#2"/>
    </vehicle>
    <vehicle id="veh527" type="veh_passenger" depart="208.45" departLane="best" departSpeed="max">
        <route edges="-41907107 -41907104#2 -41907104#0 522923261#3 522923261#4 522923261#5 522923261#6 305134499"/>
    </vehicle>
    <vehicle id="veh533" type="veh_passenger" depart="210.82" departLane="best" departSpeed="max">
        <route edges="-419034864 7981375#0 7981375#1 417356369#6 439914190#0 439914190#1 -417396998 -7981384#0"/>
    </vehicle>
    <vehicle id="veh535" type="veh_passenger" depart="211.61" departLane="best" departSpeed="max">
        <route edges="-419034864 7981375#0 7981375#1 417356369#6 439914190#0 439914190#1 7981349#0 -295064775#1 41974274"/>
    </vehicle>
    <vehicle id="veh548" type="veh_passenger" depart="216.76" departLane="best" departSpeed="max">
        <route edges="7981402#0 7981402#2 7981402#4 7981402#5 7981402#6 481235792 -481235794#1 -522923261#7 -522923261#6 -522923261#5 -522923261#4 -522923261#3 41907104#0 -41907104#0"/>
    </vehicle>
    <vehicle id="veh549" type="veh_passenger" depart="217.15" departLane="best" departSpeed="max">
        <route edges="172496439#0 172496439#1 172481042 36990663#0 36990663#1 615624636 417356369#3 417356369#4 417356369#5 417356369#6 439914190#0 439914190#1 7981349#0 -295064775#1 -295064775#0 36780345"/>
    </vehicle>
    <vehicle id="veh559" type="veh_passenger" depart="221.11" departLane="best" departSpeed="max">
        <route edges="-7981362#2 -7981362#1 -7981362#0 7981349#0 7981349#1 7981349#2 41974272#0 41974273"/>
    </vehicle>
    <vehicle id="veh561" type="veh_passenger" depart="221.90" departLane="best">
        <route edges="-198381413#0 -33808568#3 -33808568#2 -33808568#1 -33808568#0 -481235793#1 -481235794#1 -522923261#7 -522923261#6 -522923261#5 -522923261#4 522923261#4"/>
    </vehicle>
    <vehicle id="veh562" type="veh_passenger" depart="222.29" departLane="best" departSpeed="max">
        <route edges="-7981362#2 -7981362#1 -7981362#0 -417396998 -7981384#0"/>
    </vehicle>
    <vehicle id="veh565" type="veh_passenger" depart="223.48" departLane="best">
        <route edges="193140112#1 193140112#2 193140112#3 193140112#4 193140112#5 193140112#6 417356369#2 417356369#3 417356369#4 417356369#5 417356369#6 439914190#0 439914190#1 -417396998 -7981344#3 -7981344#2 -7981344#1"/>
    </vehicle>
    <vehicle id="veh578" type="veh_passenger" depart="228.62" departLane="best">
        <route edges="647751270#1 647751267#0 647751267#1 -618924009#4 653926098#1 -653926100#4 -653926100#3 -653926100#2 -653926100#1 -653926100#0 105702353"/>
    </vehicle>
    <vehicle id="veh585" type="veh_passenger" depart="231.39" departLane="best">
        <route edges="-198381413#1 -198381413#0 -33808568#3 -33808568#2 -33808568#1 -33808568#0 -481235793#1 -481235794#1 -522923261#7 -522923261#6 -522923261#5 -522923261#4 522923261#4"/>
    </vehicle>
    <vehicle id="veh590" type="veh_passenger" depart="233.37" departLane="best" departSpeed="max">
        <route edges="443443986#0 443443986#1 417396998 7981349#0 -295064775#1 -295064775#0 36780345"/>
    </vehicle>
    <vehicle id="veh603" type="veh_passenger" depart="238.51" departLane="best" departSpeed="max">
        <route edges="-198381413#2 36772004 -7981402#2 -7981402#1"/>
    </vehicle>