<?xml version="1.0" encoding="UTF-8"?>
<!-- generated on 2019-04-03 11:39:44.385948 by $Id$ via randomTrips.py
  options: 
-->
<routes xmlns:xsi="http://www.w3.org/2001/XMLSchema-instance" xsi:noNamespaceSchemaLocation="http://sumo.dlr.de/xsd/routes_file.xsd">
    <vType id="veh_passenger" vClass="passenger">
    </vType>
    <trip id="veh1" depart="0.40" departLane="best" departSpeed="max" from="443443986#0" to="41974272#2" type="veh_passenger"/>
    <trip id="veh5" depart="1.98" departLane="best" from="36990663#0" to="419034864" type="veh_passenger"/>
    <trip id="veh6" depart="2.37" departLane="best" from="522923261#4" to="-198381413#0" type="veh_passenger"/>
    <trip id="veh9" depart="3.56" departLane="best" from="-295064775#0" to="-443443986#0" type="veh_passenger"/>
    <trip id="veh19" depart="7.52" departLane="best" departSpeed="max" from="-41974272#2" to="7981362#2" type="veh_passenger"/>
    <trip id="veh27" depart="10.68" departLane="best" departSpeed="max" from="-41974272#2" to="-7981344#1" type="veh_passenger"/>
    <trip id="veh33" depart="13.05" departLane="best" from="481235794#0" to="198381413#2" type="veh_passenger"/>
    <trip id="veh34" depart="13.45" departLane="best" from="-198381413#0" to="172482832#0" type="veh_passenger"/>
    <trip id="veh50" depart="19.78" departLane="best" departSpeed="max" from="-198381413#2" to="36772004" type="veh_passenger"/>
    <trip id="veh51" depart="20.17" departLane="best" departSpeed="max" from="-198381413#2" to="481235794#0" type="veh_passenger"/>
    <trip id="veh52" depart="20.57" departLane="best" from="-7981375#1" to="419034864" type="veh_passenger"/>
    <trip id="veh55" depart="21.75" departLane="best" departSpeed="max" from="-41907106" to="-7981402#1" type="veh_passenger"/>
    <trip id="veh57" depart="22.55" departLane="best" departSpeed="max" from="-7981349#3" to="417356369#2" type="veh_passenger"/>
    <trip id="veh59" depart="23.34" departLane="best" from="-522923261#4" to="41907104#4" type="veh_passenger"/>
    <trip id="veh68" depart="26.90" departLane="best" departSpeed="max" from="443443986#0" to="41974272#2" type="veh_passenger"/>
    <trip id="veh76" depart="30.06" departLane="best" from="7981396" to="7981349#3" type="veh_passenger"/>
    <trip id="veh77" depart="30.46" departLane="best" departSpeed="max" from="-7981395#1" to="-615624636" type="veh_passenger"/>
    <trip id="veh83" depart="32.83" departLane="best" from="193140112#5" to="41974274" type="veh_passenger"/>
    <trip id="veh97" depart="38.37" departLane="best" departSpeed="max" from="-41974272#2" to="7981362#1" type="veh_passenger"/>
    <trip id="veh102" depart="40.34" departLane="best" from="417356369#4" to="7981362#2" type="veh_passenger"/>
    <trip id="veh109" depart="43.11" departLane="best" from="443443986#1" to="419034864" type="veh_passenger"/>
    <trip id="veh112" depart="44.30" departLane="best" departSpeed="max" from="7981344#0" to="419034864" type="veh_passenger"/>
    <trip id="veh117" depart="46.28" departLane="best" from="-41974272#0" to="-443443986#0" type="veh_passenger"/>
    <trip id="veh128" depart="50.63" departLane="best" departSpeed="max" from="-7981362#2" to="-7981384#0" type="veh_passenger"/>
    <trip id="veh138" depart="54.58" departLane="best" from="443443986#1" to="41974272#2" type="veh_passenger"/>
    <trip id="veh143" depart="56.56" departLane="best" from="-33808568#2" to="198381413#2" type="veh_passenger"/>
    <trip id="veh149" depart="58.94" departLane="best" departSpeed="max" from="-7981349#3" to="-615624636" type="veh_passenger"/>
    <trip id="veh150" depart="59.33" departLane="best" from="522923261#0" to="-522923261#7" type="veh_passenger"/>
    <trip id="veh159" depart="62.89" departLane="best" departSpeed="max" from="-7981395#1" to="-7981344#1" type="veh_passenger"/>
    <trip id="veh170" depart="67.24" departLane="best" from="439914190#1" to="36780345" type="veh_passenger"/>
    <trip id="veh173" depart="68.43" departLane="best" from="-7981375#1" to="-7981344#2" type="veh_passenger"/>
    <trip id="veh192" depart="75.94" departLane="best" departSpeed="max" from="-41907107" to="-7981402#1" type="veh_passenger"/>
    <trip id="veh200" depart="79.11" departLane="best" departSpeed="max" from="-172482832#1" to="-522923261#2" type="veh_passenger"/>
    <trip id="veh213" depart="84.25" departLane="best" departSpeed="max" from="443443986#0" to="7981395#1" type="veh_passenger"/>
    <trip id="veh233" depart="92.16" departLane="best" from="191052495#0" to="481235794#0" type="veh_passenger"/>
    <trip id="veh236" depart="93.35" departLane="best" departSpeed="max" from="-41974273" to="-443443986#0" type="veh_passenger"/>
    <trip id="veh237" depart="93.74" departLane="best" from="-41907104#2" to="-264951423#0" type="veh_passenger"/>
    <trip id="veh244" depart="96.51" departLane="best" from="-41907104#4" to="-33808568#1" type="veh_passenger"/>
    <trip id="veh247" depart="97.70" departLane="best" departSpeed="max" from="-198381413#2" to="41907107" type="veh_passenger"/>
    <trip id="veh248" depart="98.09" departLane="best" departSpeed="max" from="-172482832#1" to="-522923261#1" type="veh_passenger"/>
    <trip id="veh255" depart="100.86" departLane="best" departSpeed="max" from="443443986#0" to="7981362#2" type="veh_passenger"/>
    <trip id="veh258" depart="102.05" departLane="best" departSpeed="max" from="-41907103#1" to="-41907104#3" type="veh_passenger"/>
    <trip id="veh262" depart="103.63" departLane="best" from="481235793#0" to="41907107" type="veh_passenger"/>
    <trip id="veh263" depart="104.03" departLane="best" from="417356369#3" to="7981362#1" type="veh_passenger"/>
    <trip id="veh264" depart="104.42" departLane="best" from="-7981349#2" to="419034864" type="veh_passenger"/>
    <trip id="veh267" depart="105.61" departLane="best" departSpeed="max" from="-45851615" to="-45851615" type="veh_passenger"/>
    <trip id="veh269" depart="106.40" departLane="best" from="7981375#1" to="36780345" type="veh_passenger"/>
    <trip id="veh270" depart="106.80" departLane="best" departSpeed="max" from="-7981395#1" to="-41974269#0" type="veh_passenger"/>
    <trip id="veh271" depart="107.19" departLane="best" departSpeed="max" from="-172482832#1" to="198381413#2" type="veh_passenger"/>
    <trip id="veh277" depart="109.56" departLane="best" departSpeed="max" from="-7981395#1" to="-443443986#0" type="veh_passenger"/>
    <trip id="veh287" depart="113.52" departLane="best" from="193140112#3" to="7981349#3" type="veh_passenger"/>
    <trip id="veh289" depart="114.31" departLane="best" from="295064775#1" to="-7981344#1" type="veh_passenger"/>
    <trip id="veh291" depart="115.10" departLane="best" from="193140112#4" to="-443443986#0" type="veh_passenger"/>
    <trip id="veh299" depart="118.27" departLane="best" departSpeed="max" from="27904597#0" to="7981402#6" type="veh_passenger"/>
    <trip id="veh302" depart="119.45" departLane="best" from="193140112#4" to="419034864" type="veh_passenger"/>
    <trip id="veh315" depart="124.59" departLane="best" departSpeed="max" from="443443986#0" to="193140112#5" type="veh_passenger"/>
    <trip id="veh326" depart="128.95" departLane="best" departSpeed="max" from="-172482832#1" to="522923262#1" type="veh_passenger"/>
    <trip id="veh328" depart="129.74" departLane="best" departSpeed="max" from="-419034864" to="417356369#6" type="veh_passenger"/>
    <trip id="veh329" depart="130.13" departLane="best" departSpeed="max" from="264951423#0" to="522923262#1" type="veh_passenger"/>
    <trip id="veh332" depart="131.32" departLane="best" departSpeed="max" from="-41974272#2" to="-7981344#1" type="veh_passenger"/>
    <trip id="veh333" depart="131.71" departLane="best" departSpeed="max" from="7981344#0" to="41974272#2" type="veh_passenger"/>
    <trip id="veh334" depart="132.11" departLane="best" from="-522923261#7" to="41907104#3" type="veh_passenger"/>
    <trip id="veh335" depart="132.51" departLane="best" from="33808568#2" to="198381413#2" type="veh_passenger"/>
    <trip id="veh336" depart="132.90" departLane="best" from="-41974272#0" to="615624636" type="veh_passenger"/>
    <trip id="veh343" depart="135.67" departLane="best" departSpeed="max" from="-172482832#1" to="41907106" type="veh_passenger"/>
    <trip id="veh346" depart="136.86" departLane="best" from="33808568#1" to="41907107" type="veh_passenger"/>
    <trip id="veh353" depart="139.63" departLane="best" from="172496439#1" to="7981349#3" type="veh_passenger"/>
    <trip id="veh360" depart="142.39" departLane="best" departSpeed="max" from="443443986#0" to="7981395#1" type="veh_passenger"/>
    <trip id="veh363" depart="143.58" departLane="best" departSpeed="max" from="-7981362#2" to="41974272#2" type="veh_passenger"/>
    <trip id="veh368" depart="145.56" departLane="best" departSpeed="max" from="-41907107" to="-41907103#0" type="veh_passenger"/>
    <trip id="veh371" depart="146.74" departLane="best" departSpeed="max" from="-419034864" to="7981362#2" type="veh_passenger"/>
    <trip id="veh377" depart="149.12" departLane="best" from="-7981344#3" to="-443443986#0" type="veh_passenger"/>
    <trip id="veh378" depart="149.51" departLane="best" departSpeed="max" from="-7981395#1" to="193140112#4" type="veh_passenger"/>
    <trip id="veh380" depart="150.30" departLane="best" from="193140112#1" to="7981395#1" type="veh_passenger"/>
    <trip id="veh386" depart="152.68" departLane="best" departSpeed="max" from="-198381413#2" to="522923261#0" type="veh_passenger"/>
    <trip id="veh389" depart="153.86" departLane="best" departSpeed="max" from="-419034864" to="7981349#0" type="veh_passenger"/>
    <trip id="veh390" depart="154.26" departLane="best" departSpeed="max" from="-105702353" to="647751270#0" type="veh_passenger"/>
    <trip id="veh399" depart="157.82" departLane="best" departSpeed="max" from="-7981395#1" to="193140112#2" type="veh_passenger"/>
    <trip id="veh402" depart="159.01" departLane="best" departSpeed="max" from="-198381413#2" to="41907106" type="veh_passenger"/>
    <trip id="veh405" depart="160.19" departLane="best" from="-522923261#0" to="7981402#5" type="veh_passenger"/>
    <trip id="veh411" depart="162.57" departLane="best" from="-7981344#3" to="-443443986#0" type="veh_passenger"/>
    <trip id="veh419" depart="165.73" departLane="best" from="439914190#1" to="7981395#1" type="veh_passenger"/>
    <trip id="veh423" depart="167.31" departLane="best" departSpeed="max" from="264951423#0" to="522923262#1" type="veh_passenger"/>
    <trip id="veh425" depart="168.10" departLane="best" from="522923261#7" to="41907107" type="veh_passenger"/>
    <trip id="veh429" depart="169.69" departLane="best" from="-522923261#5" to="-191052495#1" type="veh_passenger"/>
    <trip id="veh436" depart="172.45" departLane="best" departSpeed="max" from="-198381413#2" to="-33808568#1" type="veh_passenger"/>
    <trip id="veh437" depart="172.85" departLane="best" departSpeed="max" from="-41907103#1" to="41907107" type="veh_passenger"/>
    <trip id="veh440" depart="174.04" departLane="best" departSpeed="max" from="-7981349#3" to="-7981375#1" type="veh_passenger"/>
    <trip id="veh441" depart="174.43" departLane="best" from="41907104#0" to="36772004" type="veh_passenger"/>
    <trip id="veh444" depart="175.62" departLane="best" departSpeed="max" from="-41907107" to="-481235793#1" type="veh_passenger"/>
    <trip id="veh447" depart="176.81" departLane="best" from="-41907104#0" to="172482832#0" type="veh_passenger"/>
    <trip id="veh459" depart="181.55" departLane="best" from="-522923261#5" to="-7981402#4" type="veh_passenger"/>
    <trip id="veh464" depart="183.53" departLane="best" departSpeed="max" from="27904597#0" to="481235794#0" type="veh_passenger"/>
    <trip id="veh468" depart="185.11" departLane="best" from="-7981362#1" to="7981349#3" type="veh_passenger"/>
    <trip id="veh472" depart="186.69" departLane="best" departSpeed="max" from="-198381413#2" to="264951423#1" type="veh_passenger"/>
    <trip id="veh483" depart="191.05" departLane="best" departSpeed="max" from="-419034864" to="-417396998" type="veh_passenger"/>
    <trip id="veh488" depart="193.02" departLane="best" departSpeed="max" from="-7981349#3" to="417356369#3" type="veh_passenger"/>
    <trip id="veh492" depart="194.60" departLane="best" departSpeed="max" from="443443986#0" to="41974272#0" type="veh_passenger"/>
    <trip id="veh494" depart="195.40" departLane="best" from="7981396" to="41974273" type="veh_passenger"/>
    <trip id="veh507" depart="200.54" departLane="best" from="52774437#3" to="653926100#1" type="veh_passenger"/>
    <trip id="veh508" depart="200.93" departLane="best" departSpeed="max" from="-172482832#1" to="-7981402#5" type="veh_passenger"/>
    <trip id="veh511" depart="202.12" departLane="best" departSpeed="max" from="-7981349#3" to="193140112#5" type="veh_passenger"/>
    <trip id="veh513" depart="202.91" departLane="best" departSpeed="max" from="-7981349#3" to="-7981375#1" type="veh_passenger"/>
    <trip id="veh516" depart="204.10" departLane="best" departSpeed="max" from="7981384#0" to="7981395#1" type="veh_passenger"/>
    <trip id="veh517" depart="204.49" departLane="best" departSpeed="max" from="-7981362#2" to="-7981375#0" type="veh_passenger"/>
    <trip id="veh520" depart="205.68" departLane="best" from="522923261#2" to="-481235793#1" type="veh_passenger"/>
    <trip id="veh526" depart="208.05" departLane="best" departSpeed="max" from="-7981349#3" to="7981362#2" type="veh_passenger"/>
    <trip id="veh527" depart="208.45" departLane="best" departSpeed="max" from="-41907107" to="305134499" type="veh_passenger"/>
    <trip id="veh533" depart="210.82" departLane="best" departSpeed="max" from="-419034864" to="-7981384#0" type="veh_passenger"/>
    <trip id="veh535" depart="211.61" departLane="best" departSpeed="max" from="-419034864" to="41974274" type="veh_passenger"/>
    <trip id="veh548" depart="216.76" departLane="best" departSpeed="max" from="7981402#0" to="-41907104#0" type="veh_passenger"/>
    <trip id="veh549" depart="217.15" departLane="best" departSpeed="max" from="172496439#0" to="36780345" type="veh_passenger"/>
    <trip id="veh559" depart="221.11" departLane="best" departSpeed="max" from="-7981362#2" to="41974273" type="veh_passenger"/>
    <trip id="veh561" depart="221.90" departLane="best" from="-198381413#0" to="522923261#4" type="veh_passenger"/>
    <trip id="veh562" depart="222.29" departLane="best" departSpeed="max" from="-7981362#2" to="-7981384#0" type="veh_passenger"/>
    <trip id="veh565" depart="223.48" departLane="best" from="193140112#1" to="-7981344#1" type="veh_passenger"/>
    <trip id="veh578" depart="228.62" departLane="best" from="647751270#1" to="105702353" type="veh_passenger"/>
    <trip id="veh585" depart="231.39" departLane="best" from="-198381413#1" to="522923261#4" type="veh_passenger"/>
    <trip id="veh590" depart="233.37" departLane="best" departSpeed="max" from="443443986#0" to="36780345" type="veh_passenger"/>
    <trip id="veh603" depart="238.51" departLane="best" departSpeed="max" from="-198381413#2" to="-7981402#1" type="veh_passenger"/>
    <trip id="veh608" depart="240.49" departLane="best" from="-7981362#1" to="41974273" type="veh_passenger"/>
    <trip id="veh621" depart="245.63" departLane="best" from="-7981402#2" to="41907107" type="veh_passenger"/>
    <trip id="veh625" depart="247.21" departLane="best" departSpeed="max" from="-198381413#2" to="-33808568#3" type="veh_passenger"/>
    <trip id="veh630" depart="249.19" departLane="best" departSpeed="max" from="-41974272#2" to="-7981344#1" type="veh_passenger"/>
    <trip id="veh633" depart="250.38" departLane="best" departSpeed="max" from="-41907103#1" to="-7981402#1" type="veh_passenger"/>
    <trip id="veh634" depart="250.77" departLane="best" departSpeed="max" from="264951423#0" to="-7981402#1" type="veh_passenger"/>
    <trip id="veh636" depart="251.56" departLane="best" departSpeed="max" from="172496439#0" to="36780345" type="veh_passenger"/>
    <trip id="veh645" depart="255.12" departLane="best" from="-7981402#5" to="522923261#0" type="veh_passenger"/>
    <trip id="veh654" depart="258.68" departLane="best" departSpeed="max" from="-41907103#1" to="7981402#2" type="veh_passenger"/>
    <trip id="veh655" depart="259.08" departLane="best" departSpeed="max" from="443443986#0" to="-7981384#0" type="veh_passenger"/>
    <trip id="veh656" depart="259.47" departLane="best" from="172496439#1" to="41974274" type="veh_passenger"/>
    <trip id="veh659" depart="260.66" departLane="best" departSpeed="max" from="7981402#0" to="41907104#2" type="veh_passenger"/>
    <trip id="veh661" depart="261.45" departLane="best" from="41907104#4" to="-305134499" type="veh_passenger"/>
    <trip id="veh662" depart="261.85" departLane="best" from="-7981375#1" to="7981395#1" type="veh_passenger"/>
    <trip id="veh668" depart="264.22" departLane="best" departSpeed="max" from="-172482832#1" to="-7981402#1" type="veh_passenger"/>
    <trip id="veh669" depart="264.62" departLane="best" departSpeed="max" from="-419034864" to="41974273" type="veh_passenger"/>
    <trip id="veh671" depart="265.41" departLane="best" departSpeed="max" from="443443986#0" to="-417396998" type="veh_passenger"/>
    <trip id="veh681" depart="269.36" departLane="best" from="-41974269#0" to="7981395#1" type="veh_passenger"/>
    <trip id="veh691" depart="273.32" departLane="best" departSpeed="max" from="-7981349#3" to="-7981344#1" type="veh_passenger"/>
    <trip id="veh696" depart="275.29" departLane="best" from="172496439#1" to="41974269#1" type="veh_passenger"/>
    <trip id="veh698" depart="276.09" departLane="best" from="193140112#3" to="7981349#3" type="veh_passenger"/>
    <trip id="veh703" depart="278.06" departLane="best" departSpeed="max" from="7981344#0" to="-443443986#0" type="veh_passenger"/>
    <trip id="veh705" depart="278.85" departLane="best" departSpeed="max" from="443443986#0" to="7981362#2" type="veh_passenger"/>
    <trip id="veh712" depart="281.62" departLane="best" from="193140112#1" to="36780345" type="veh_passenger"/>
    <trip id="veh716" depart="283.21" departLane="best" departSpeed="max" from="-7981362#2" to="-7981344#1" type="veh_passenger"/>
    <trip id="veh721" depart="285.18" departLane="best" from="-41907104#4" to="-481235793#1" type="veh_passenger"/>
    <trip id="veh732" depart="289.53" departLane="best" departSpeed="max" from="7981344#0" to="-7981384#0" type="veh_passenger"/>
    <trip id="veh736" depart="291.12" departLane="best" from="-7981344#3" to="419034864" type="veh_passenger"/>
    <trip id="veh737" depart="291.51" departLane="best" from="-7981375#0" to="419034864" type="veh_passenger"/>
    <trip id="veh740" depart="292.70" departLane="best" from="-7981362#0" to="41974274" type="veh_passenger"/>
    <trip id="veh741" depart="293.09" departLane="best" departSpeed="max" from="-198381413#2" to="41907103#1" type="veh_passenger"/>
    <trip id="veh750" depart="296.65" departLane="best" from="-647751272#3" to="52774437#11" type="veh_passenger"/>
    <trip id="veh756" depart="299.03" departLane="best" from="7981402#4" to="172482832#0" type="veh_passenger"/>
    <trip id="veh759" depart="300.21" departLane="best" from="417356369#3" to="419034864" type="veh_passenger"/>
    <trip id="veh762" depart="301.40" departLane="best" departSpeed="max" from="172496439#0" to="443443986#1" type="veh_passenger"/>
    <trip id="veh764" depart="302.19" departLane="best" from="417396998" to="419034864" type="veh_passenger"/>
    <trip id="veh766" depart="302.98" departLane="best" departSpeed="max" from="-41974273" to="7981362#2" type="veh_passenger"/>
    <trip id="veh768" depart="303.77" departLane="best" from="522923261#4" to="198381413#2" type="veh_passenger"/>
    <trip id="veh770" depart="304.56" departLane="best" departSpeed="max" from="-105702353" to="-52774437#8" type="veh_passenger"/>
    <trip id="veh780" depart="308.52" departLane="best" departSpeed="max" from="-419034864" to="41974272#2" type="veh_passenger"/>
    <trip id="veh785" depart="310.50" departLane="best" from="481235792" to="-7981402#1" type="veh_passenger"/>
    <trip id="veh795" depart="314.45" departLane="best" departSpeed="max" from="-41907106" to="481235794#0" type="veh_passenger"/>
    <trip id="veh806" depart="318.80" departLane="best" departSpeed="max" from="172496439#0" to="36780345" type="veh_passenger"/>
    <trip id="veh811" depart="320.78" departLane="best" departSpeed="max" from="-41974272#2" to="7981362#1" type="veh_passenger"/>
    <trip id="veh812" depart="321.18" departLane="best" departSpeed="max" from="264951423#0" to="198381413#1" type="veh_passenger"/>
    <trip id="veh818" depart="323.55" departLane="best" departSpeed="max" from="-41907103#1" to="522923262#1" type="veh_passenger"/>
    <trip id="veh820" depart="324.34" departLane="best" departSpeed="max" from="-7981395#1" to="7981349#3" type="veh_passenger"/>
    <trip id="veh830" depart="328.30" departLane="best" departSpeed="max" from="-41974273" to="7981395#1" type="veh_passenger"/>
    <trip id="veh831" depart="328.69" departLane="best" from="41907103#0" to="522923262#1" type="veh_passenger"/>
    <trip id="veh832" depart="329.09" departLane="best" departSpeed="max" from="7981344#0" to="-443443986#0" type="veh_passenger"/>
    <trip id="veh849" depart="335.81" departLane="best" departSpeed="max" from="27904597#0" to="481235792" type="veh_passenger"/>
    <trip id="veh850" depart="336.21" departLane="best" departSpeed="max" from="-198381413#2" to="-522923261#5" type="veh_passenger"/>
    <trip id="veh853" depart="337.39" departLane="best" departSpeed="max" from="443443986#0" to="36780345" type="veh_passenger"/>
    <trip id="veh854" depart="337.79" departLane="best" departSpeed="max" from="7981402#0" to="-33808568#1" type="veh_passenger"/>
    <trip id="veh861" depart="340.56" departLane="best" departSpeed="max" from="-198381413#2" to="41907107" type="veh_passenger"/>
    <trip id="veh863" depart="341.35" departLane="best" departSpeed="max" from="-198381413#2" to="-522923261#2" type="veh_passenger"/>
    <trip id="veh872" depart="344.91" departLane="best" departSpeed="max" from="7981344#0" to="7981395#1" type="veh_passenger"/>
    <trip id="veh881" depart="348.47" departLane="best" from="-522923261#1" to="-7981402#4" type="veh_passenger"/>
    <trip id="veh882" depart="348.86" departLane="best" departSpeed="max" from="7981402#0" to="-481235792" type="veh_passenger"/>
    <trip id="veh884" depart="349.66" departLane="best" departSpeed="max" from="-41907106" to="-7981402#1" type="veh_passenger"/>
    <trip id="veh888" depart="351.24" departLane="best" from="522923261#7" to="191052495#1" type="veh_passenger"/>
    <trip id="veh897" depart="354.80" departLane="best" from="417356369#2" to="41974274" type="veh_passenger"/>
    <trip id="veh898" depart="355.19" departLane="best" from="481235793#0" to="-41907104#3" type="veh_passenger"/>
    <trip id="veh899" depart="355.59" departLane="best" from="7981402#2" to="33808568#2" type="veh_passenger"/>
    <trip id="veh904" depart="357.57" departLane="best" departSpeed="max" from="-198381413#2" to="522923261#1" type="veh_passenger"/>
    <trip id="veh924" depart="365.48" departLane="best" departSpeed="max" from="27904597#0" to="191052495#0" type="veh_passenger"/>
    <trip id="veh929" depart="367.46" departLane="best" departSpeed="max" from="172496439#0" to="41974269#1" type="veh_passenger"/>
    <trip id="veh933" depart="369.04" departLane="best" departSpeed="max" from="-198381413#2" to="-481235792" type="veh_passenger"/>
    <trip id="veh946" depart="374.18" departLane="best" from="41907104#3" to="198381413#1" type="veh_passenger"/>
    <trip id="veh950" depart="375.76" departLane="best" departSpeed="max" from="-41974273" to="419034864" type="veh_passenger"/>
    <trip id="veh956" depart="378.13" departLane="best" from="439914190#1" to="419034864" type="veh_passenger"/>
    <trip id="veh961" depart="380.11" departLane="best" from="522923261#7" to="198381415" type="veh_passenger"/>
    <trip id="veh962" depart="380.51" departLane="best" from="7981402#4" to="522923261#3" type="veh_passenger"/>
    <trip id="veh966" depart="382.09" departLane="best" departSpeed="max" from="-41974273" to="419034864" type="veh_passenger"/>
    <trip id="veh978" depart="386.84" departLane="best" departSpeed="max" from="-41974272#2" to="193140112#6" type="veh_passenger"/>
    <trip id="veh979" depart="387.23" departLane="best" departSpeed="max" from="-7981362#2" to="41974269#1" type="veh_passenger"/>
    <trip id="veh983" depart="388.81" departLane="best" departSpeed="max" from="-7981362#2" to="41974272#2" type="veh_passenger"/>
    <trip id="veh986" depart="390.00" departLane="best" departSpeed="max" from="-7981349#3" to="-615624636" type="veh_passenger"/>
    <trip id="veh988" depart="390.79" departLane="best" departSpeed="max" from="264951423#0" to="36772004" type="veh_passenger"/>
    <trip id="veh997" depart="394.35" departLane="best" from="417356369#1" to="-7981344#1" type="veh_passenger"/>
    <trip id="veh1002" depart="396.33" departLane="best" from="-7981395#0" to="-473401240" type="veh_passenger"/>
    <trip id="veh1004" depart="397.12" departLane="best" from="522923261#7" to="7981402#2" type="veh_passenger"/>
    <trip id="veh1005" depart="397.52" departLane="best" departSpeed="max" from="-198381413#2" to="172482832#0" type="veh_passenger"/>
    <trip id="veh1009" depart="399.10" departLane="best" from="7981402#4" to="-481235794#1" type="veh_passenger"/>
    <trip id="veh1013" depart="400.68" departLane="best" departSpeed="max" from="-419034864" to="193140112#6" type="veh_passenger"/>
    <trip id="veh1046" depart="413.73" departLane="best" departSpeed="max" from="264951423#0" to="-41907104#4" type="veh_passenger"/>
    <trip id="veh1048" depart="414.52" departLane="best" from="-7981402#2" to="41907103#1" type="veh_passenger"/>
    <trip id="veh1054" depart="416.90" departLane="best" departSpeed="max" from="-419034864" to="7981362#0" type="veh_passenger"/>
    <trip id="veh1062" depart="420.06" departLane="best" departSpeed="max" from="-7981362#2" to="-7981375#0" type="veh_passenger"/>
    <trip id="veh1072" depart="424.02" departLane="best" from="52774437#5" to="653926099#0" type="veh_passenger"/>
    <trip id="veh1081" depart="427.58" departLane="best" departSpeed="max" from="264951423#0" to="198381413#2" type="veh_passenger"/>
    <trip id="veh1104" depart="436.67" departLane="best" from="33808568#3" to="41907104#2" type="veh_passenger"/>
    <trip id="veh1118" depart="442.21" departLane="best" departSpeed="max" from="172496439#0" to="41974269#0" type="veh_passenger"/>
    <trip id="veh1119" depart="442.61" departLane="best" from="7981402#2" to="522923261#6" type="veh_passenger"/>
    <trip id="veh1120" depart="443.00" departLane="best" departSpeed="max" from="-7981395#1" to="7981349#3" type="veh_passenger"/>
    <trip id="veh1121" depart="443.40" departLane="best" from="-41907104#2" to="-7981402#1" type="veh_passenger"/>
    <trip id="veh1126" depart="445.38" departLane="best" departSpeed="max" from="-172482832#1" to="7981402#5" type="veh_passenger"/>
    <trip id="veh1132" depart="447.75" departLane="best" departSpeed="max" from="-41907106" to="7981402#2" type="veh_passenger"/>
    <trip id="veh1139" depart="450.52" departLane="best" from="439914190#0" to="7981349#3" type="veh_passenger"/>
    <trip id="veh1141" depart="451.31" departLane="best" departSpeed="max" from="-172482832#1" to="41907104#3" type="veh_passenger"/>
    <trip id="veh1152" depart="455.66" departLane="best" departSpeed="max" from="7981384#0" to="7981362#2" type="veh_passenger"/>
    <trip id="veh1159" depart="458.43" departLane="best" departSpeed="max" from="-41974269#1" to="7981395#1" type="veh_passenger"/>
    <trip id="veh1166" depart="461.20" departLane="best" departSpeed="max" from="443443986#0" to="7981395#1" type="veh_passenger"/>
    <trip id="veh1171" depart="463.18" departLane="best" from="41907104#4" to="-522923261#5" type="veh_passenger"/>
    <trip id="veh1186" depart="469.11" departLane="best" departSpeed="max" from="-7981395#1" to="41974272#2" type="veh_passenger"/>
    <trip id="veh1191" depart="471.09" departLane="best" from="-191052495#1" to="481235792" type="veh_passenger"/>
    <trip id="veh1194" depart="472.27" departLane="best" from="522923261#7" to="198381413#2" type="veh_passenger"/>
    <trip id="veh1196" depart="473.06" departLane="best" from="-7981395#0" to="-41974269#0" type="veh_passenger"/>
    <trip id="veh1197" depart="473.46" departLane="best" departSpeed="max" from="7981344#0" to="41974274" type="veh_passenger"/>
    <trip id="veh1210" depart="478.60" departLane="best" from="481235793#0" to="41907107" type="veh_passenger"/>
    <trip id="veh1213" depart="479.79" departLane="best" departSpeed="max" from="27904597#0" to="481235794#0" type="veh_passenger"/>
    <trip id="veh1214" depart="480.18" departLane="best" from="7981375#0" to="7981349#3" type="veh_passenger"/>
    <trip id="veh1227" depart="485.33" departLane="best" departSpeed="max" from="7981402#0" to="264951423#1" type="veh_passenger"/>
    <trip id="veh1233" depart="487.70" departLane="best" departSpeed="max" from="-41907103#1" to="-7981402#1" type="veh_passenger"/>
    <trip id="veh1235" depart="488.49" departLane="best" departSpeed="max" from="7981344#0" to="41974274" type="veh_passenger"/>
    <trip id="veh1247" depart="493.24" departLane="best" departSpeed="max" from="-41974272#2" to="193140112#5" type="veh_passenger"/>
    <trip id="veh1248" depart="493.63" departLane="best" departSpeed="max" from="7981344#0" to="41974269#1" type="veh_passenger"/>
    <trip id="veh1249" depart="494.03" departLane="best" departSpeed="max" from="27904597#0" to="-198381413#0" type="veh_passenger"/>
    <trip id="veh1252" depart="495.21" departLane="best" from="33808568#3" to="198381413#2" type="veh_passenger"/>