<?xml version="1.0" encoding="UTF-8"?>
<!-- generated on 2019-04-03 11:39:44.929121 by $Id$ via randomTrips.py
  options: 
-->
<routes xmlns:xsi="http://www.w3.org/2001/XMLSchema-instance" xsi:noNamespaceSchemaLocation="http://sumo.dlr.de/xsd/routes_file.xsd">
    <vType id="bike_bicycle" vClass="bicycle">
    </vType>
    <trip id="bike1" depart="23.02" departLane="best" departSpeed="max" from="-42493062" to="-522923261#5" type="bike_bicycle"/>
    <trip id="bike2" depart="46.03" departLane="best" departSpeed="max" from="42493049" to="423122831" type="bike_bicycle"/>
    <trip id="bike4" depart="92.06" departLane="best" from="-7981402#5" to="-264953289#0" type="bike_bicycle"/>
    <trip id="bike6" depart="138.10" departLane="best" departSpeed="max" from="-198381486" to="-481235792" type="bike_bicycle"/>
    <trip id="bike12" depart="276.19" departLane="best" from="7981349#0" to="-7981384#0" type="bike_bicycle"/>
    <trip id="bike17" depart="391.27" departLane="best" from="-7981344#3" to="36780345" type="bike_bicycle"/>
    <trip id="bike19" depart="437.30" departLane="best" from="615624636" to="418113960" type="bike_bicycle"/>
    <trip id="bike20" depart="460.32" departLane="best" departSpeed="max" from="42492996" to="-303985803" type="bike_bicycle"/>
    <trip id="bike26" depart="598.42" departLane="best" departSpeed="max" from="-42493044#4" to="678614837#1" type="bike_bicycle"/>
    <trip id="bike28" depart="644.45" departLane="best" from="-41907104#0" to="42493044#3" type="bike_bicycle"/>
    <trip id="bike31" depart="713.50" departLane="best" departSpeed="max" from="334339696" to="423867257#1" type="bike_bicycle"/>
    <trip id="bike39" depart="897.62" departLane="best" departSpeed="max" from="-42493044#4" to="-52774437#2" type="bike_bicycle"/>
    <trip id="bike40" depart="920.64" departLane="best" from="33808568#0" to="-52774437#9" type="bike_bicycle"/>
    <trip id="bike46" depart="1058.74" departLane="best" from="522923261#3" to="198381490" type="bike_bicycle"/>
    <trip id="bike48" depart="1104.77" departLane="best" from="7981402#6" to="305134530" type="bike_bicycle"/>
    <trip id="bike50" depart="1150.80" departLane="best" from="-191052495#0" to="42493044#0" type="bike_bicycle"/>
    <trip id="bike54" depart="1242.86" departLane="best" from="193140112#3" to="7981349#1" type="bike_bicycle"/>
    <trip id="bike55" depart="1265.88" departLane="best" from="632220982#1" to="-52774437#9" type="bike_bicycle"/>
    <trip id="bike56" depart="1288.90" departLane="best" from="264953289#2" to="-42493049" type="bike_bicycle"/>
    <trip id="bike59" depart="1357.94" departLane="best" from="41907104#0" to="-42492996" type="bike_bicycle"/>
    <trip id="bike60" depart="1380.96" departLane="best" departSpeed="max" from="469115000" to="33808568#0" type="bike_bicycle"/>
    <trip id="bike63" depart="1450.01" departLane="best" from="-198381413#1" to="678614835#1" type="bike_bicycle"/>
    <trip id="bike64" depart="1473.02" departLane="best" from="632220982#2" to="52774437#7" type="bike_bicycle"/>
    <trip id="bike65" depart="1496.04" departLane="best" from="-522923261#6" to="-305134510#0" type="bike_bicycle"/>
    <trip id="bike71" depart="1634.14" departLane="best" departSpeed="max" from="-42493044#4" to="643779851" type="bike_bicycle"/>
    <trip id="bike72" depart="1657.15" departLane="best" from="-7981402#6" to="-522923261#0" type="bike_bicycle"/>
    <trip id="bike73" depart="1680.17" departLane="best" from="305134510#1" to="42493044#3" type="bike_bicycle"/>
    <trip id="bike74" depart="1703.18" departLane="best" departSpeed="max" from="-41974269#1" to="-7981344#2" type="bike_bicycle"/>
    <trip id="bike75" depart="1726.20" departLane="best" from="7981402#6" to="422263667#1" type="bike_bicycle"/>
    <trip id="bike77" depart="1772.23" departLane="best" departSpeed="max" from="-305134510#2" to="-522923261#5" type="bike_bicycle"/>
    <trip id="bike80" depart="1841.28" departLane="best" departSpeed="max" from="-284367147" to="41974272#0" type="bike_bicycle"/>
    <trip id="bike83" depart="1910.33" departLane="best" from="-422674512#0" to="422674510#1" type="bike_bicycle"/>
    <trip id="bike86" depart="1979.38" departLane="best" from="256886180" to="522923261#5" type="bike_bicycle"/>
    <trip id="bike90" depart="2071.44" departLane="best" from="42493044#2" to="423122831" type="bike_bicycle"/>
    <trip id="bike91" depart="2094.46" departLane="best" departSpeed="max" from="7981402#0" to="-41907103#0" type="bike_bicycle"/>
    <trip id="bike94" depart="2163.50" departLane="best" departSpeed="max" from="-41907107" to="264953289#2" type="bike_bicycle"/>
    <trip id="bike95" depart="2186.52" departLane="best" from="-7981402#5" to="-624111576" type="bike_bicycle"/>
    <trip id="bike96" depart="2209.54" departLane="best" departSpeed="max" from="-42493020" to="653935074#1" type="bike_bicycle"/>
    <trip id="bike97" depart="2232.55" departLane="best" from="191052495#1" to="632220983#1" type="bike_bicycle"/>
    <trip id="bike102" depart="2347.63" departLane="best" departSpeed="max" from="264953287" to="-522923261#1" type="bike_bicycle"/>
    <trip id="bike104" depart="2393.66" departLane="best" from="-7981344#3" to="7981396" type="bike_bicycle"/>
    <trip id="bike105" depart="2416.68" departLane="best" departSpeed="max" from="-42493044#4" to="522923261#5" type="bike_bicycle"/>
    <trip id="bike108" depart="2485.73" departLane="best" departSpeed="max" from="334339696" to="42493020" type="bike_bicycle"/>
    <trip id="bike110" depart="2531.76" departLane="best" from="7981375#0" to="418113960" type="bike_bicycle"/>
    <trip id="bike113" depart="2600.81" departLane="best" departSpeed="max" from="27904597#0" to="632220982#1" type="bike_bicycle"/>
    <trip id="bike114" depart="2623.82" departLane="best" departSpeed="max" from="-419034864" to="7981349#3" type="bike_bicycle"/>
    <trip id="bike117" depart="2692.87" departLane="best" departSpeed="max" from="-422674506#1" to="-422263665#0" type="bike_bicycle"/>
    <trip id="bike118" depart="2715.89" departLane="best" from="647751267#0" to="-52774437#2" type="bike_bicycle"/>
    <trip id="bike119" depart="2738.90" departLane="best" from="417396998" to="41974269#0" type="bike_bicycle"/>
    <trip id="bike121" depart="2784.94" departLane="best" from="305134497#1" to="678614837#0" type="bike_bicycle"/>
    <trip id="bike126" depart="2900.02" departLane="best" departSpeed="max" from="-284367147" to="295064775#1" type="bike_bicycle"/>
    <trip id="bike129" depart="2969.06" departLane="best" departSpeed="max" from="-42493044#4" to="678614837#0" type="bike_bicycle"/>
    <trip id="bike130" depart="2992.08" departLane="best" from="632220983#0" to="643779852" type="bike_bicycle"/>
    <trip id="bike135" depart="3107.16" departLane="best" from="522923264#4" to="-678614837#0" type="bike_bicycle"/>
    <trip id="bike136" depart="3130.18" departLane="best" departSpeed="max" from="423122830" to="678614838" type="bike_bicycle"/>
    <trip id="bike139" depart="3199.22" departLane="best" departSpeed="max" from="-42493058#1" to="41907105" type="bike_bicycle"/>
    <trip id="bike140" depart="3222.24" departLane="best" departSpeed="max" from="42493028" to="-481235794#1" type="bike_bicycle"/>
    <trip id="bike142" depart="3268.27" departLane="best" departSpeed="max" from="264953288" to="653926099#0" type="bike_bicycle"/>
    <trip id="bike144" depart="3314.30" departLane="best" from="-7981402#6" to="-624111576" type="bike_bicycle"/>
    <trip id="bike146" depart="3360.33" departLane="best" departSpeed="max" from="422263665#0" to="-52774437#8" type="bike_bicycle"/>
    <trip id="bike149" depart="3429.38" departLane="best" from="-295064775#0" to="647531734" type="bike_bicycle"/>
    <trip id="bike152" depart="3498.43" departLane="best" from="-33808568#1" to="-422263671#0" type="bike_bicycle"/>
    <trip id="bike153" depart="3521.45" departLane="best" from="-522923261#6" to="647751272#4" type="bike_bicycle"/>
    <trip id="bike154" depart="3544.46" departLane="best" from="522923261#5" to="632220983#1" type="bike_bicycle"/>
    <trip id="bike156" depart="3590.49" departLane="best" departSpeed="max" from="-42493020" to="-41907104#2" type="bike_bicycle"/>
</routes>
