<?xml version="1.0" encoding="UTF-8"?>

<!-- generated on Wed Apr  3 11:39:45 2019 by Eclipse SUMO duarouter Version 1.1.0
<configuration xmlns:xsi="http://www.w3.org/2001/XMLSchema-instance" xsi:noNamespaceSchemaLocation="http://sumo.dlr.de/xsd/duarouterConfiguration.xsd">

    <input>
        <net-file value="/home/nils/Projekte/AVS/2019-04-03-11-39-40/osm.net.xml"/>
        <route-files value="/home/nils/Projekte/AVS/2019-04-03-11-39-40/osm.motorcycle.trips.xml"/>
    </input>

    <output>
        <output-file value="/home/nils/Projekte/AVS/2019-04-03-11-39-40/osm.motorcycle.rou.xml"/>
        <alternatives-output value="/home/nils/Projekte/AVS/2019-04-03-11-39-40/osm.motorcycle.rou.alt.xml"/>
    </output>

    <time>
        <begin value="0"/>
        <end value="3600.0"/>
    </time>

    <report>
        <no-warnings value="true"/>
        <ignore-errors value="true"/>
        <no-step-log value="true"/>
    </report>

</configuration>
-->

<routes xmlns:xsi="http://www.w3.org/2001/XMLSchema-instance" xsi:noNamespaceSchemaLocation="http://sumo.dlr.de/xsd/routes_file.xsd">
    <vType id="moto_motorcycle" vClass="motorcycle"/>
    <vehicle id="moto1" type="moto_motorcycle" depart="49.44" departLane="best">
        <route edges="-52774437#10 -52774437#9 -52774437#8 -52774437#7 -52774437#6 -52774437#5"/>
    </vehicle>
    <vehicle id="moto4" type="moto_motorcycle" depart="197.77" departLane="best">
        <route edges="-7981375#0 7981375#0 7981375#1 417356369#6 439914190#0 439914190#1 7981349#0 -295064775#1 -295064775#0"/>
    </vehicle>
    <vehicle id="moto5" type="moto_motorcycle" depart="247.21" departLane="best">
        <route edges="-481235793#1 481235793#0 33808568#0"/>
    </vehicle>
    <vehicle id="moto8" type="moto_motorcycle" depart="395.54" departLane="best">
        <route edges="-481235793#1 -481235794#1 41907103#0"/>
    </vehicle>
    <vehicle id="moto12" type="moto_motorcycle" depart="593.31" departLane="best" departSpeed="max">
        <route edges="7981384#0 417396998 193140112#0 193140112#1 193140112#2 193140112#3 193140112#4 193140112#5 193140112#6 417356369#2 417356369#3 417356369#4 417356369#5 -7981375#1"/>
    </vehicle>
    <vehicle id="moto13" type="moto_motorcycle" depart="642.75" departLane="best">
        <route edges="-33808568#2 -33808568#1 -33808568#0 -481235793#1 -481235794#1 -522923261#7 -522923261#6 -522923261#5 -522923261#4 -522923261#3 41907104#0 41907104#2 41907104#3 41907104#4 -41907104#4"/>
    </vehicle>
    <vehicle id="moto17" type="moto_motorcycle" depart="840.52" departLane="best">
        <route edges="-7981349#0 193140112#0 193140112#1 193140112#2 193140112#3 193140112#4 193140112#5 193140112#6 417356369#2"/>
    </vehicle>
    <vehicle id="moto26" type="moto_motorcycle" depart="1285.50" departLane="best">
        <route edges="41907104#0 41907104#2"/>
    </vehicle>
    <vehicle id="moto30" type="moto_motorcycle" depart="1483.27" departLane="best">
        <route edges="295064775#0 41974274"/>
    </vehicle>
    <vehicle id="moto31" type="moto_motorcycle" depart="1532.71" departLane="best">
        <route edges="647751267#1 647751270#0 647751270#1 647751272#0 647751272#3 647751272#4 52774437#1 52774437#2 52774437#3 52774437#4 52774437#5 52774437#6 52774437#7 52774437#8 52774437#9 52774437#10"/>
    </vehicle>
    <vehicle id="moto33" type="moto_motorcycle" depart="1631.60" departLane="best">
        <route edges="-52774437#7 52774437#7 52774437#8 52774437#9 52774437#10 52774437#11 52774437#12 653926100#0 -653926100#0"/>
    </vehicle>
    <vehicle id="moto34" type="moto_motorcycle" depart="1681.04" departLane="best">
        <route edges="-473401240 443443986#1 417396998 7981362#0 7981362#1"/>
    </vehicle>
    <vehicle id="moto42" type="moto_motorcycle" depart="2076.58" departLane="best">
        <route edges="7981402#6 481235792 481235793#0 33808568#0 33808568#1"/>
    </vehicle>
    <vehicle id="moto49" type="moto_motorcycle" depart="2422.67" departLane="best" departSpeed="max">
        <route edges="-172482832#1 -481235794#1 -522923261#7 -522923261#6 -522923261#5 -522923261#4 -522923261#3 -522923261#2 -522923261#1 -522923261#0 522923261#0"/>
    </vehicle>
    <vehicle id="moto52" type="moto_motorcycle" depart="2571.00" departLane="best" departSpeed="max">
        <route edges="-419034864 7981375#0 7981375#1 417356369#6 439914190#0 439914190#1 193140112#0 193140112#1 193140112#2"/>
    </vehicle>
    <vehicle id="moto54" type="moto_motorcycle" depart="2669.88" departLane="best">
        <route edges="653926099#0 618924009#4 647751270#0 647751270#1 647751272#0 647751272#3 -647751272#3"/>
    </vehicle>
    <vehicle id="moto63" type="moto_motorcycle" depart="3114.86" departLane="best">
        <route edges="653926099#0 618924009#4"/>
    </vehicle>
    <vehicle id="moto67" type="moto_motorcycle" depart="3312.63" departLane="best">
        <route edges="-305134499 -522923261#6 -522923261#5 -522923261#4 -522923261#3 -522923261#2 -522923261#1 -522923261#0 522923262#1"/>
    </vehicle>
    <vehicle id="moto69" type="moto_motorcycle" depart="3411.52" departLane="best">
        <route edges="172496439#1 172481042 36990663#0 36990663#1 615624636 417356369#3 417356369#4 417356369#5 417356369#6 417356369#1 417356369#2"/>
    </vehicle>
    <vehicle id="moto72" type="moto_motorcycle" depart="3559.84" departLane="best" departSpeed="max">
        <route edges="264951423#0 -305134499 -522923261#6 -522923261#5 -522923261#4 -522923261#3 -522923261#2 522923261#2"/>
    </vehicle>
</routes>
