<?xml version="1.0" encoding="UTF-8"?>
<!-- generated on 2019-04-03 11:39:46.184625 by $Id$ via randomTrips.py
  options: 
-->
<routes xmlns:xsi="http://www.w3.org/2001/XMLSchema-instance" xsi:noNamespaceSchemaLocation="http://sumo.dlr.de/xsd/routes_file.xsd">
    <vType id="bus_bus" vClass="bus">
    </vType>
    <trip id="bus9" depart="444.98" departLane="best" departSpeed="max" from="-41974273" to="-7981344#1" type="bus_bus"/>
    <trip id="bus12" depart="593.31" departLane="best" departSpeed="max" from="-198381413#2" to="172482832#0" type="bus_bus"/>
    <trip id="bus20" depart="988.85" departLane="best" departSpeed="max" from="-7981395#1" to="419034864" type="bus_bus"/>
    <trip id="bus51" depart="2521.56" departLane="best" departSpeed="max" from="7981344#0" to="417396998" type="bus_bus"/>
    <trip id="bus52" depart="2571.00" departLane="best" departSpeed="max" from="7981344#0" to="-615624636" type="bus_bus"/>
    <trip id="bus57" depart="2818.21" departLane="best" departSpeed="max" from="443443986#0" to="-7981395#0" type="bus_bus"/>
    <trip id="bus66" depart="3263.19" departLane="best" from="172481042" to="-7981344#1" type="bus_bus"/>
    <trip id="bus72" depart="3559.84" departLane="best" departSpeed="max" from="-7981395#1" to="-7981344#1" type="bus_bus"/>
</routes>
