<?xml version="1.0" encoding="UTF-8"?>
<!-- generated on 2019-04-03 11:39:45.704308 by $Id$ via randomTrips.py
  options: 
-->
<routes xmlns:xsi="http://www.w3.org/2001/XMLSchema-instance" xsi:noNamespaceSchemaLocation="http://sumo.dlr.de/xsd/routes_file.xsd">
    <vType id="moto_motorcycle" vClass="motorcycle">
    </vType>
    <trip id="moto1" depart="49.44" departLane="best" from="-52774437#10" to="-52774437#5" type="moto_motorcycle"/>
    <trip id="moto4" depart="197.77" departLane="best" from="-7981375#0" to="-295064775#0" type="moto_motorcycle"/>
    <trip id="moto5" depart="247.21" departLane="best" from="-481235793#1" to="33808568#0" type="moto_motorcycle"/>
    <trip id="moto8" depart="395.54" departLane="best" from="-481235793#1" to="41907103#0" type="moto_motorcycle"/>
    <trip id="moto12" depart="593.31" departLane="best" departSpeed="max" from="7981384#0" to="-7981375#1" type="moto_motorcycle"/>
    <trip id="moto13" depart="642.75" departLane="best" from="-33808568#2" to="-41907104#4" type="moto_motorcycle"/>
    <trip id="moto17" depart="840.52" departLane="best" from="-7981349#0" to="417356369#2" type="moto_motorcycle"/>
    <trip id="moto26" depart="1285.50" departLane="best" from="41907104#0" to="41907104#2" type="moto_motorcycle"/>
    <trip id="moto30" depart="1483.27" departLane="best" from="295064775#0" to="41974274" type="moto_motorcycle"/>
    <trip id="moto31" depart="1532.71" departLane="best" from="647751267#1" to="52774437#10" type="moto_motorcycle"/>
    <trip id="moto33" depart="1631.60" departLane="best" from="-52774437#7" to="-653926100#0" type="moto_motorcycle"/>
    <trip id="moto34" depart="1681.04" departLane="best" from="-473401240" to="7981362#1" type="moto_motorcycle"/>
    <trip id="moto42" depart="2076.58" departLane="best" from="7981402#6" to="33808568#1" type="moto_motorcycle"/>
    <trip id="moto49" depart="2422.67" departLane="best" departSpeed="max" from="-172482832#1" to="522923261#0" type="moto_motorcycle"/>
    <trip id="moto52" depart="2571.00" departLane="best" departSpeed="max" from="-419034864" to="193140112#2" type="moto_motorcycle"/>
    <trip id="moto54" depart="2669.88" departLane="best" from="653926099#0" to="-647751272#3" type="moto_motorcycle"/>
    <trip id="moto63" depart="3114.86" departLane="best" from="653926099#0" to="618924009#4" type="moto_motorcycle"/>
    <trip id="moto67" depart="3312.63" departLane="best" from="-305134499" to="522923262#1" type="moto_motorcycle"/>
    <trip id="moto69" depart="3411.52" departLane="best" from="172496439#1" to="417356369#2" type="moto_motorcycle"/>
    <trip id="moto72" depart="3559.84" departLane="best" departSpeed="max" from="264951423#0" to="522923261#2" type="moto_motorcycle"/>
</routes>
