<?xml version="1.0" encoding="UTF-8"?>
<!-- generated on 2019-04-03 11:39:45.320635 by $Id$ via randomTrips.py
  options: 
-->
<routes xmlns:xsi="http://www.w3.org/2001/XMLSchema-instance" xsi:noNamespaceSchemaLocation="http://sumo.dlr.de/xsd/routes_file.xsd">
    <vType id="truck_truck" vClass="truck">
    </vType>
    <trip id="truck9" depart="222.49" departLane="best" departSpeed="max" from="-41974273" to="-7981344#1" type="truck_truck"/>
    <trip id="truck12" depart="296.65" departLane="best" departSpeed="max" from="-198381413#2" to="172482832#0" type="truck_truck"/>
    <trip id="truck20" depart="494.42" departLane="best" departSpeed="max" from="-7981395#1" to="419034864" type="truck_truck"/>
    <trip id="truck51" depart="1260.78" departLane="best" departSpeed="max" from="7981344#0" to="417396998" type="truck_truck"/>
    <trip id="truck52" depart="1285.50" departLane="best" departSpeed="max" from="7981344#0" to="-615624636" type="truck_truck"/>
    <trip id="truck57" depart="1409.11" departLane="best" departSpeed="max" from="443443986#0" to="-7981395#0" type="truck_truck"/>
    <trip id="truck66" depart="1631.60" departLane="best" from="172481042" to="-7981344#1" type="truck_truck"/>
    <trip id="truck72" depart="1779.92" departLane="best" departSpeed="max" from="-7981395#1" to="-7981344#1" type="truck_truck"/>
    <trip id="truck84" depart="2076.58" departLane="best" departSpeed="max" from="-198381413#2" to="172482832#0" type="truck_truck"/>
    <trip id="truck91" depart="2249.62" departLane="best" departSpeed="max" from="-419034864" to="7981396" type="truck_truck"/>
    <trip id="truck95" depart="2348.51" departLane="best" departSpeed="max" from="443443986#0" to="7981395#1" type="truck_truck"/>
    <trip id="truck110" depart="2719.33" departLane="best" departSpeed="max" from="-198381413#2" to="-522923261#4" type="truck_truck"/>
    <trip id="truck126" depart="3114.86" departLane="best" departSpeed="max" from="-419034864" to="7981395#1" type="truck_truck"/>
    <trip id="truck144" depart="3559.84" departLane="best" departSpeed="max" from="-41974273" to="-7981344#1" type="truck_truck"/>
    <trip id="truck145" depart="3584.57" departLane="best" departSpeed="max" from="7981344#0" to="41974272#2" type="truck_truck"/>
</routes>
